emap2_Bn-3,4diF_CHF2
 OpenBabel07042618103D

 34 37  0  0  0  0  0  0  0  0999 V2000
    6.8520   13.9290    8.6580 N   0  0  0  0  0  0  0  0  0  0  0  0
    6.0680   13.7090    7.5170 C   0  0  0  0  0  0  0  0  0  0  0  0
    6.8840   13.0920    6.5900 C   0  0  0  0  0  0  0  0  0  0  0  0
    6.3530   12.8180    5.3720 C   0  0  0  0  0  3  0  0  0  0  0  0
    5.0750   13.1470    5.0970 N   0  0  0  0  0  0  0  0  0  0  0  0
    4.3410   13.7540    6.0760 C   0  0  0  0  0  0  0  0  0  0  0  0
    4.7990   14.0630    7.3140 N   0  0  0  0  0  0  0  0  0  0  0  0
    8.1420   12.8990    7.1480 N   0  0  0  0  0  0  0  0  0  0  0  0
    8.1360   13.4050    8.4440 C   0  0  0  0  0  0  0  0  0  0  0  0
    9.0720   13.4110    9.2280 O   0  0  0  0  0  0  0  0  0  0  0  0
    2.9650   14.1610    5.7150 C   0  0  0  0  0  0  0  0  0  0  0  0
    2.0270   13.2220    5.2360 C   0  0  0  0  0  3  0  0  0  0  0  0
    0.7380   13.6000    4.8480 C   0  0  0  0  0  3  0  0  0  0  0  0
    0.3500   14.9330    4.9350 C   0  0  0  0  0  3  0  0  0  0  0  0
    1.2470   15.8810    5.4200 C   0  0  0  0  0  3  0  0  0  0  0  0
    2.5370   15.4970    5.8050 C   0  0  0  0  0  3  0  0  0  0  0  0
    9.2730   12.3580    6.4900 C   0  0  0  0  0  3  0  0  0  0  0  0
    9.0300   11.0700    6.1360 F   0  0  0  0  0  0  0  0  0  0  0  0
    9.4850   13.0350    5.3310 F   0  0  0  0  0  0  0  0  0  0  0  0
    6.3600   14.4520    9.9060 C   0  0  0  0  0  2  0  0  0  0  0  0
    4.1250   13.7970   10.8740 N   0  0  0  0  0  0  0  0  0  0  0  0
    5.4540   13.4290   10.6210 C   0  0  0  0  0  0  0  0  0  0  0  0
    5.9130   12.3300   10.9420 O   0  0  0  0  0  0  0  0  0  0  0  0
    2.9110   13.1540   13.0690 C   0  0  0  0  0  1  0  0  0  0  0  0
    3.1810   12.9190   11.5900 C   0  0  0  0  0  2  0  0  0  0  0  0
    3.5640   15.0960   10.4670 C   0  0  0  0  0  2  0  0  0  0  0  0
    2.1660   15.0600    9.8960 C   0  0  0  0  0  0  0  0  0  0  0  0
    1.3560   16.1950   10.0550 C   0  0  0  0  0  0  0  0  0  0  0  0
    1.7950   17.2230   10.7950 F   0  0  0  0  0  0  0  0  0  0  0  0
    0.1080   16.3020    9.4400 C   0  0  0  0  0  3  0  0  0  0  0  0
   -0.3570   15.2520    8.6520 C   0  0  0  0  0  3  0  0  0  0  0  0
    0.4100   14.0990    8.5340 C   0  0  0  0  0  0  0  0  0  0  0  0
   -0.0410   13.0870    7.7830 F   0  0  0  0  0  0  0  0  0  0  0  0
    1.6510   13.9850    9.1590 C   0  0  0  0  0  3  0  0  0  0  0  0
  1 20  1  0  0  0  0
  2  1  1  0  0  0  0
  3  8  1  0  0  0  0
  3  2  1  0  0  0  0
  4  3  2  0  0  0  0
  5  4  1  0  0  0  0
  5  6  2  0  0  0  0
  6  7  1  0  0  0  0
  7  2  2  0  0  0  0
  8  9  1  0  0  0  0
  9  1  1  0  0  0  0
  9 10  2  0  0  0  0
 11 16  1  0  0  0  0
 11  6  1  0  0  0  0
 12 11  2  0  0  0  0
 13 14  2  0  0  0  0
 13 12  1  0  0  0  0
 14 15  1  0  0  0  0
 15 16  2  0  0  0  0
 17  8  1  0  0  0  0
 18 17  1  0  0  0  0
 19 17  1  0  0  0  0
 20 22  1  0  0  0  0
 21 25  1  0  0  0  0
 22 21  1  0  0  0  0
 22 23  2  0  0  0  0
 25 24  1  0  0  0  0
 26 21  1  0  0  0  0
 27 28  1  0  0  0  0
 27 26  1  0  0  0  0
 28 29  1  0  0  0  0
 30 28  2  0  0  0  0
 31 30  1  0  0  0  0
 32 31  2  0  0  0  0
 32 34  1  0  0  0  0
 33 32  1  0  0  0  0
 34 27  2  0  0  0  0
M  END
>  <MODEL>
1

>  <REMARK>
 VINA RESULT:    -5.500      0.000      0.000
 INTER + INTRA:         -10.263
 INTER:                  -7.750
 INTRA:                  -2.513
 UNBOUND:                -2.513
  Name = emap2_Bn-3,4diF_CHF2
  8 active torsions:
  status: ('A' for Active; 'I' for Inactive)
    1  A    between atoms: C_1  and  C_2
    2  A    between atoms: C_2  and  N_3
    3  A    between atoms: N_3  and  C_4
    4  A    between atoms: C_4  and  C_5
    5  A    between atoms: C_13  and  C_15
    6  A    between atoms: C_15  and  N_16
    7  A    between atoms: C_21  and  C_23
    8  A    between atoms: N_29  and  C_32
                            x       y       z     vdW  Elec       q    Type
                         _______ _______ _______ _____ _____    ______ ____

>  <TORSDO>
F 7

$$$$
