A15_meeko_out
     RDKit          3D

 53 56  0  0  0  0  0  0  0  0999 V2000
    9.8640   16.7040    4.0810 C   0  0  0  0  0  0  0  0  0  0  0  0
   10.1630   15.3190    3.5290 C   0  0  0  0  0  0  0  0  0  0  0  0
    8.9720   14.6770    2.9570 N   0  0  0  0  0  0  0  0  0  0  0  0
    7.9990   15.5130    2.2460 C   0  0  0  0  0  0  0  0  0  0  0  0
    7.7430   15.0970    0.8160 C   0  0  0  0  0  0  0  0  0  0  0  0
    6.5740   14.3730    0.5120 C   0  0  0  0  0  0  0  0  0  0  0  0
    6.3070   13.9680   -0.7960 C   0  0  0  0  0  0  0  0  0  0  0  0
    4.8760   13.0780   -1.1390 Cl  0  0  0  0  0  0  0  0  0  0  0  0
    7.1910   14.2790   -1.8250 C   0  0  0  0  0  0  0  0  0  0  0  0
    8.3520   14.9990   -1.5410 C   0  0  0  0  0  0  0  0  0  0  0  0
    8.6280   15.4080   -0.2300 C   0  0  0  0  0  0  0  0  0  0  0  0
   10.0880   16.2920    0.0360 Cl  0  0  0  0  0  0  0  0  0  0  0  0
    8.9180   13.3010    2.6890 C   0  0  0  0  0  0  0  0  0  0  0  0
    9.6670   12.7760    1.8610 O   0  0  0  0  0  0  0  0  0  0  0  0
    7.8800   12.4810    3.4730 C   0  0  0  0  0  0  0  0  0  0  0  0
    7.9660   12.7350    4.8860 N   0  0  0  0  0  0  0  0  0  0  0  0
    9.0380   12.3810    5.7190 C   0  0  0  0  0  0  0  0  0  0  0  0
   10.1250   11.9510    5.3680 O   0  0  0  0  0  0  0  0  0  0  0  0
    8.6070   12.6260    7.0400 N   0  0  0  0  0  0  0  0  0  0  0  0
    9.3480   12.3510    8.2360 C   0  0  0  0  0  0  0  0  0  0  0  0
    7.2760   13.0470    6.9880 C   0  0  0  0  0  0  0  0  0  0  0  0
    6.3540   13.3690    7.9300 C   0  0  0  0  0  0  0  0  0  0  0  0
    5.1020   13.7340    7.5740 N   0  0  0  0  0  0  0  0  0  0  0  0
    4.7970   13.7550    6.2420 C   0  0  0  0  0  0  0  0  0  0  0  0
    3.4190   14.1340    5.8620 C   0  0  0  0  0  0  0  0  0  0  0  0
    2.4540   13.1640    5.5240 C   0  0  0  0  0  0  0  0  0  0  0  0
    1.1510   13.5240    5.1620 C   0  0  0  0  0  0  0  0  0  0  0  0
    0.7810   14.8640    5.1280 C   0  0  0  0  0  0  0  0  0  0  0  0
    1.7130   15.8450    5.4550 C   0  0  0  0  0  0  0  0  0  0  0  0
    3.0130   15.4820    5.8190 C   0  0  0  0  0  0  0  0  0  0  0  0
    5.6600   13.4590    5.2460 N   0  0  0  0  0  0  0  0  0  0  0  0
    6.8730   13.1090    5.6730 C   0  0  0  0  0  0  0  0  0  0  0  0
    9.8713   16.6700    5.1804 H   0  0  0  0  0  0  0  0  0  0  0  0
   10.6301   17.4115    3.7309 H   0  0  0  0  0  0  0  0  0  0  0  0
    8.8743   17.0324    3.7309 H   0  0  0  0  0  0  0  0  0  0  0  0
   10.9279   15.4089    2.7436 H   0  0  0  0  0  0  0  0  0  0  0  0
   10.5144   14.6934    4.3628 H   0  0  0  0  0  0  0  0  0  0  0  0
    7.0452   15.4705    2.7923 H   0  0  0  0  0  0  0  0  0  0  0  0
    8.4265   16.5257    2.2058 H   0  0  0  0  0  0  0  0  0  0  0  0
    5.8639   14.1242    1.3144 H   0  0  0  0  0  0  0  0  0  0  0  0
    6.9759   13.9593   -2.8553 H   0  0  0  0  0  0  0  0  0  0  0  0
    9.0541   15.2467   -2.3507 H   0  0  0  0  0  0  0  0  0  0  0  0
    6.8728   12.7501    3.1221 H   0  0  0  0  0  0  0  0  0  0  0  0
    8.0822   11.4135    3.3012 H   0  0  0  0  0  0  0  0  0  0  0  0
    8.7264   12.5817    9.1137 H   0  0  0  0  0  0  0  0  0  0  0  0
    9.6306   11.2881    8.2560 H   0  0  0  0  0  0  0  0  0  0  0  0
   10.2556   12.9722    8.2560 H   0  0  0  0  0  0  0  0  0  0  0  0
    6.6282   13.3327    8.9946 H   0  0  0  0  0  0  0  0  0  0  0  0
    2.7313   12.0997    5.5452 H   0  0  0  0  0  0  0  0  0  0  0  0
    0.4181   12.7454    4.9038 H   0  0  0  0  0  0  0  0  0  0  0  0
   -0.2432   15.1475    4.8441 H   0  0  0  0  0  0  0  0  0  0  0  0
    1.4263   16.9066    5.4269 H   0  0  0  0  0  0  0  0  0  0  0  0
    3.7368   16.2687    6.0783 H   0  0  0  0  0  0  0  0  0  0  0  0
  1  2  1  0
  2  3  1  0
  3  4  1  0
  4  5  1  0
  5  6  2  0
  6  7  1  0
  7  8  1  0
  7  9  2  0
  9 10  1  0
 10 11  2  0
 11 12  1  0
  3 13  1  0
 13 14  2  0
 13 15  1  0
 15 16  1  0
 16 17  1  0
 17 18  2  0
 17 19  1  0
 19 20  1  0
 19 21  1  0
 21 22  2  0
 22 23  1  0
 23 24  2  0
 24 25  1  0
 25 26  2  0
 26 27  1  0
 27 28  2  0
 28 29  1  0
 29 30  2  0
 24 31  1  0
 31 32  2  0
 11  5  1  0
 32 16  1  0
 32 21  1  0
 30 25  1  0
  1 33  1  0
  1 34  1  0
  1 35  1  0
  2 36  1  0
  2 37  1  0
  4 38  1  0
  4 39  1  0
  6 40  1  0
  9 41  1  0
 10 42  1  0
 15 43  1  0
 15 44  1  0
 20 45  1  0
 20 46  1  0
 20 47  1  0
 22 48  1  0
 26 49  1  0
 27 50  1  0
 28 51  1  0
 29 52  1  0
 30 53  1  0
M  END
>  <meeko>  (1) 
{"is_sidechain": [false], "free_energy": -6.697, "intermolecular_energy": -9.437, "internal_energy": -1.234}

$$$$
A15_meeko_out
     RDKit          3D

 53 56  0  0  0  0  0  0  0  0999 V2000
   -4.5630   17.1540   10.3500 C   0  0  0  0  0  0  0  0  0  0  0  0
   -4.8980   16.4360    9.0510 C   0  0  0  0  0  0  0  0  0  0  0  0
   -3.9620   16.7730    7.9700 N   0  0  0  0  0  0  0  0  0  0  0  0
   -3.0170   15.7480    7.5170 C   0  0  0  0  0  0  0  0  0  0  0  0
   -1.6580   15.8140    8.1750 C   0  0  0  0  0  0  0  0  0  0  0  0
   -1.2600   17.0060    8.8090 C   0  0  0  0  0  0  0  0  0  0  0  0
   -0.0110   17.1040    9.4220 C   0  0  0  0  0  0  0  0  0  0  0  0
    0.4550   18.5750   10.1820 Cl  0  0  0  0  0  0  0  0  0  0  0  0
    0.8620   16.0200    9.4220 C   0  0  0  0  0  0  0  0  0  0  0  0
    0.4810   14.8290    8.8020 C   0  0  0  0  0  0  0  0  0  0  0  0
   -0.7700   14.7240    8.1820 C   0  0  0  0  0  0  0  0  0  0  0  0
   -1.1630   13.2170    7.4350 Cl  0  0  0  0  0  0  0  0  0  0  0  0
   -4.1920   17.8380    7.0860 C   0  0  0  0  0  0  0  0  0  0  0  0
   -4.6190   18.9250    7.4830 O   0  0  0  0  0  0  0  0  0  0  0  0
   -3.8890   17.5850    5.6000 C   0  0  0  0  0  0  0  0  0  0  0  0
   -2.9340   18.5290    5.0880 N   0  0  0  0  0  0  0  0  0  0  0  0
   -3.2400   19.7590    4.4850 C   0  0  0  0  0  0  0  0  0  0  0  0
   -4.3340   20.2970    4.4360 O   0  0  0  0  0  0  0  0  0  0  0  0
   -2.0280   20.2470    3.9500 N   0  0  0  0  0  0  0  0  0  0  0  0
   -1.8640   21.4460    3.1840 C   0  0  0  0  0  0  0  0  0  0  0  0
   -1.0410   19.2840    4.1710 C   0  0  0  0  0  0  0  0  0  0  0  0
    0.2720   19.1880    3.8400 C   0  0  0  0  0  0  0  0  0  0  0  0
    0.9930   18.0970    4.1820 N   0  0  0  0  0  0  0  0  0  0  0  0
    0.3550   17.0960    4.8580 C   0  0  0  0  0  0  0  0  0  0  0  0
    1.1450   15.8970    5.2090 C   0  0  0  0  0  0  0  0  0  0  0  0
    2.3840   15.9990    5.8720 C   0  0  0  0  0  0  0  0  0  0  0  0
    3.1330   14.8630    6.2030 C   0  0  0  0  0  0  0  0  0  0  0  0
    2.6610   13.5970    5.8760 C   0  0  0  0  0  0  0  0  0  0  0  0
    1.4410   13.4640    5.2180 C   0  0  0  0  0  0  0  0  0  0  0  0
    0.6950   14.6010    4.8920 C   0  0  0  0  0  0  0  0  0  0  0  0
   -0.9430   17.1200    5.2320 N   0  0  0  0  0  0  0  0  0  0  0  0
   -1.5880   18.2250    4.8610 C   0  0  0  0  0  0  0  0  0  0  0  0
   -4.8566   16.5247   11.2031 H   0  0  0  0  0  0  0  0  0  0  0  0
   -3.4812   17.3485   10.3930 H   0  0  0  0  0  0  0  0  0  0  0  0
   -5.1090   18.1080   10.3930 H   0  0  0  0  0  0  0  0  0  0  0  0
   -4.8596   15.3508    9.2266 H   0  0  0  0  0  0  0  0  0  0  0  0
   -5.9026   16.7572    8.7385 H   0  0  0  0  0  0  0  0  0  0  0  0
   -3.4535   14.7607    7.7284 H   0  0  0  0  0  0  0  0  0  0  0  0
   -2.8539   15.9252    6.4437 H   0  0  0  0  0  0  0  0  0  0  0  0
   -1.9413   17.8695    8.8211 H   0  0  0  0  0  0  0  0  0  0  0  0
    1.8457   16.1014    9.9074 H   0  0  0  0  0  0  0  0  0  0  0  0
    1.1667   13.9689    8.8004 H   0  0  0  0  0  0  0  0  0  0  0  0
   -3.4833   16.5689    5.4861 H   0  0  0  0  0  0  0  0  0  0  0  0
   -4.8247   17.6994    5.0331 H   0  0  0  0  0  0  0  0  0  0  0  0
   -1.7468   22.3025    3.8642 H   0  0  0  0  0  0  0  0  0  0  0  0
   -0.9697   21.3565    2.5497 H   0  0  0  0  0  0  0  0  0  0  0  0
   -2.7495   21.5999    2.5497 H   0  0  0  0  0  0  0  0  0  0  0  0
    0.7547   20.0074    3.2872 H   0  0  0  0  0  0  0  0  0  0  0  0
    2.7720   16.9940    6.1357 H   0  0  0  0  0  0  0  0  0  0  0  0
    4.0963   14.9726    6.7226 H   0  0  0  0  0  0  0  0  0  0  0  0
    3.2487   12.7042    6.1359 H   0  0  0  0  0  0  0  0  0  0  0  0
    1.0641   12.4647    4.9547 H   0  0  0  0  0  0  0  0  0  0  0  0
   -0.2681   14.4798    4.3746 H   0  0  0  0  0  0  0  0  0  0  0  0
  1  2  1  0
  2  3  1  0
  3  4  1  0
  4  5  1  0
  5  6  2  0
  6  7  1  0
  7  8  1  0
  7  9  2  0
  9 10  1  0
 10 11  2  0
 11 12  1  0
  3 13  1  0
 13 14  2  0
 13 15  1  0
 15 16  1  0
 16 17  1  0
 17 18  2  0
 17 19  1  0
 19 20  1  0
 19 21  1  0
 21 22  2  0
 22 23  1  0
 23 24  2  0
 24 25  1  0
 25 26  2  0
 26 27  1  0
 27 28  2  0
 28 29  1  0
 29 30  2  0
 24 31  1  0
 31 32  2  0
 11  5  1  0
 32 16  1  0
 32 21  1  0
 30 25  1  0
  1 33  1  0
  1 34  1  0
  1 35  1  0
  2 36  1  0
  2 37  1  0
  4 38  1  0
  4 39  1  0
  6 40  1  0
  9 41  1  0
 10 42  1  0
 15 43  1  0
 15 44  1  0
 20 45  1  0
 20 46  1  0
 20 47  1  0
 22 48  1  0
 26 49  1  0
 27 50  1  0
 28 51  1  0
 29 52  1  0
 30 53  1  0
M  END
>  <meeko>  (2) 
{"is_sidechain": [false], "free_energy": -6.619, "intermolecular_energy": -8.03, "internal_energy": -2.532}

$$$$
A15_meeko_out
     RDKit          3D

 53 56  0  0  0  0  0  0  0  0999 V2000
   -2.3640   18.9140    5.7080 C   0  0  0  0  0  0  0  0  0  0  0  0
   -0.9750   19.0690    6.3090 C   0  0  0  0  0  0  0  0  0  0  0  0
   -0.0610   18.0010    5.8850 N   0  0  0  0  0  0  0  0  0  0  0  0
   -0.6240   16.8200    5.2210 C   0  0  0  0  0  0  0  0  0  0  0  0
   -0.2760   15.5050    5.8810 C   0  0  0  0  0  0  0  0  0  0  0  0
    0.6690   14.6610    5.2680 C   0  0  0  0  0  0  0  0  0  0  0  0
    1.0110   13.4370    5.8460 C   0  0  0  0  0  0  0  0  0  0  0  0
    2.1630   12.4200    5.0740 Cl  0  0  0  0  0  0  0  0  0  0  0  0
    0.4250   13.0350    7.0430 C   0  0  0  0  0  0  0  0  0  0  0  0
   -0.5110   13.8620    7.6640 C   0  0  0  0  0  0  0  0  0  0  0  0
   -0.8610   15.0900    7.0900 C   0  0  0  0  0  0  0  0  0  0  0  0
   -2.0290   16.0530    7.9210 Cl  0  0  0  0  0  0  0  0  0  0  0  0
    1.3120   18.2200    5.6980 C   0  0  0  0  0  0  0  0  0  0  0  0
    1.8080   18.2770    4.5690 O   0  0  0  0  0  0  0  0  0  0  0  0
    2.1680   18.3830    6.9640 C   0  0  0  0  0  0  0  0  0  0  0  0
    2.1420   17.1950    7.7740 N   0  0  0  0  0  0  0  0  0  0  0  0
    1.4760   17.0540    9.0010 C   0  0  0  0  0  0  0  0  0  0  0  0
    0.6920   17.8440    9.5020 O   0  0  0  0  0  0  0  0  0  0  0  0
    1.8940   15.8170    9.5360 N   0  0  0  0  0  0  0  0  0  0  0  0
    1.5230   15.2780   10.8110 C   0  0  0  0  0  0  0  0  0  0  0  0
    2.8470   15.2740    8.6710 C   0  0  0  0  0  0  0  0  0  0  0  0
    3.6110   14.1530    8.6970 C   0  0  0  0  0  0  0  0  0  0  0  0
    4.4850   13.8890    7.7000 N   0  0  0  0  0  0  0  0  0  0  0  0
    4.5810   14.7920    6.6800 C   0  0  0  0  0  0  0  0  0  0  0  0
    5.5550   14.5070    5.6040 C   0  0  0  0  0  0  0  0  0  0  0  0
    5.8580   13.1880    5.2140 C   0  0  0  0  0  0  0  0  0  0  0  0
    6.7820   12.9190    4.1980 C   0  0  0  0  0  0  0  0  0  0  0  0
    7.4280   13.9650    3.5480 C   0  0  0  0  0  0  0  0  0  0  0  0
    7.1510   15.2800    3.9120 C   0  0  0  0  0  0  0  0  0  0  0  0
    6.2250   15.5440    4.9260 C   0  0  0  0  0  0  0  0  0  0  0  0
    3.8500   15.9230    6.5760 N   0  0  0  0  0  0  0  0  0  0  0  0
    3.0110   16.1150    7.5930 C   0  0  0  0  0  0  0  0  0  0  0  0
   -3.1059   18.8312    6.5159 H   0  0  0  0  0  0  0  0  0  0  0  0
   -2.5948   19.7920    5.0868 H   0  0  0  0  0  0  0  0  0  0  0  0
   -2.3956   18.0068    5.0868 H   0  0  0  0  0  0  0  0  0  0  0  0
   -0.5588   20.0368    5.9926 H   0  0  0  0  0  0  0  0  0  0  0  0
   -1.0739   19.0120    7.4031 H   0  0  0  0  0  0  0  0  0  0  0  0
   -1.7194   16.9205    5.2115 H   0  0  0  0  0  0  0  0  0  0  0  0
   -0.1865   16.7895    4.2122 H   0  0  0  0  0  0  0  0  0  0  0  0
    1.1428   14.9688    4.3242 H   0  0  0  0  0  0  0  0  0  0  0  0
    0.6985   12.0709    7.4965 H   0  0  0  0  0  0  0  0  0  0  0  0
   -0.9766   13.5476    8.6097 H   0  0  0  0  0  0  0  0  0  0  0  0
    3.2069   18.5917    6.6687 H   0  0  0  0  0  0  0  0  0  0  0  0
    1.7549   19.2133    7.5555 H   0  0  0  0  0  0  0  0  0  0  0  0
    1.9512   15.9001   11.6107 H   0  0  0  0  0  0  0  0  0  0  0  0
    0.4267   15.2693   10.9005 H   0  0  0  0  0  0  0  0  0  0  0  0
    1.9063   14.2508   10.9005 H   0  0  0  0  0  0  0  0  0  0  0  0
    3.5182   13.4511    9.5388 H   0  0  0  0  0  0  0  0  0  0  0  0
    5.3566   12.3497    5.7198 H   0  0  0  0  0  0  0  0  0  0  0  0
    6.9976   11.8786    3.9131 H   0  0  0  0  0  0  0  0  0  0  0  0
    8.1548   13.7543    2.7496 H   0  0  0  0  0  0  0  0  0  0  0  0
    7.6604   16.1110    3.4021 H   0  0  0  0  0  0  0  0  0  0  0  0
    6.0145   16.5880    5.2012 H   0  0  0  0  0  0  0  0  0  0  0  0
  1  2  1  0
  2  3  1  0
  3  4  1  0
  4  5  1  0
  5  6  2  0
  6  7  1  0
  7  8  1  0
  7  9  2  0
  9 10  1  0
 10 11  2  0
 11 12  1  0
  3 13  1  0
 13 14  2  0
 13 15  1  0
 15 16  1  0
 16 17  1  0
 17 18  2  0
 17 19  1  0
 19 20  1  0
 19 21  1  0
 21 22  2  0
 22 23  1  0
 23 24  2  0
 24 25  1  0
 25 26  2  0
 26 27  1  0
 27 28  2  0
 28 29  1  0
 29 30  2  0
 24 31  1  0
 31 32  2  0
 11  5  1  0
 32 16  1  0
 32 21  1  0
 30 25  1  0
  1 33  1  0
  1 34  1  0
  1 35  1  0
  2 36  1  0
  2 37  1  0
  4 38  1  0
  4 39  1  0
  6 40  1  0
  9 41  1  0
 10 42  1  0
 15 43  1  0
 15 44  1  0
 20 45  1  0
 20 46  1  0
 20 47  1  0
 22 48  1  0
 26 49  1  0
 27 50  1  0
 28 51  1  0
 29 52  1  0
 30 53  1  0
M  END
>  <meeko>  (3) 
{"is_sidechain": [false], "free_energy": -6.543, "intermolecular_energy": -7.656, "internal_energy": -2.799}

$$$$
A15_meeko_out
     RDKit          3D

 53 56  0  0  0  0  0  0  0  0999 V2000
    6.7890   16.1560    4.2580 C   0  0  0  0  0  0  0  0  0  0  0  0
    7.3630   15.6900    2.9290 C   0  0  0  0  0  0  0  0  0  0  0  0
    7.6510   14.2490    2.9200 N   0  0  0  0  0  0  0  0  0  0  0  0
    7.4570   13.5040    1.6720 C   0  0  0  0  0  0  0  0  0  0  0  0
    7.9990   14.1930    0.4400 C   0  0  0  0  0  0  0  0  0  0  0  0
    9.3500   14.5870    0.4140 C   0  0  0  0  0  0  0  0  0  0  0  0
    9.8830   15.2290   -0.7040 C   0  0  0  0  0  0  0  0  0  0  0  0
   11.5350   15.7070   -0.7080 Cl  0  0  0  0  0  0  0  0  0  0  0  0
    9.0860   15.4870   -1.8160 C   0  0  0  0  0  0  0  0  0  0  0  0
    7.7460   15.1000   -1.8070 C   0  0  0  0  0  0  0  0  0  0  0  0
    7.2030   14.4560   -0.6880 C   0  0  0  0  0  0  0  0  0  0  0  0
    5.5350   14.0130   -0.7560 Cl  0  0  0  0  0  0  0  0  0  0  0  0
    8.4760   13.6440    3.8800 C   0  0  0  0  0  0  0  0  0  0  0  0
    9.6430   14.0090    4.0490 O   0  0  0  0  0  0  0  0  0  0  0  0
    7.8580   12.5060    4.7080 C   0  0  0  0  0  0  0  0  0  0  0  0
    7.6900   12.8850    6.0840 N   0  0  0  0  0  0  0  0  0  0  0  0
    8.6120   12.6530    7.1170 C   0  0  0  0  0  0  0  0  0  0  0  0
    9.7550   12.2420    6.9980 O   0  0  0  0  0  0  0  0  0  0  0  0
    7.9510   12.9930    8.3170 N   0  0  0  0  0  0  0  0  0  0  0  0
    8.4810   12.8560    9.6420 C   0  0  0  0  0  0  0  0  0  0  0  0
    6.6390   13.3480    8.0000 C   0  0  0  0  0  0  0  0  0  0  0  0
    5.5580   13.7100    8.7370 C   0  0  0  0  0  0  0  0  0  0  0  0
    4.3770   13.9880    8.1410 N   0  0  0  0  0  0  0  0  0  0  0  0
    4.3070   13.8790    6.7810 C   0  0  0  0  0  0  0  0  0  0  0  0
    3.0060   14.1630    6.1380 C   0  0  0  0  0  0  0  0  0  0  0  0
    2.2300   13.1390    5.5590 C   0  0  0  0  0  0  0  0  0  0  0  0
    1.0000   13.4080    4.9490 C   0  0  0  0  0  0  0  0  0  0  0  0
    0.5150   14.7110    4.9020 C   0  0  0  0  0  0  0  0  0  0  0  0
    1.2600   15.7450    5.4630 C   0  0  0  0  0  0  0  0  0  0  0  0
    2.4870   15.4710    6.0740 C   0  0  0  0  0  0  0  0  0  0  0  0
    5.3380   13.5360    5.9780 N   0  0  0  0  0  0  0  0  0  0  0  0
    6.4670   13.2780    6.6360 C   0  0  0  0  0  0  0  0  0  0  0  0
    7.3542   15.6971    5.0826 H   0  0  0  0  0  0  0  0  0  0  0  0
    6.8649   17.2512    4.3263 H   0  0  0  0  0  0  0  0  0  0  0  0
    5.7327   15.8567    4.3263 H   0  0  0  0  0  0  0  0  0  0  0  0
    6.6363   15.9104    2.1332 H   0  0  0  0  0  0  0  0  0  0  0  0
    8.3112   16.2235    2.7666 H   0  0  0  0  0  0  0  0  0  0  0  0
    7.9603   12.5309    1.7709 H   0  0  0  0  0  0  0  0  0  0  0  0
    6.3703   13.4134    1.5273 H   0  0  0  0  0  0  0  0  0  0  0  0
    9.9922   14.3866    1.2843 H   0  0  0  0  0  0  0  0  0  0  0  0
    9.5103   15.9927   -2.6959 H   0  0  0  0  0  0  0  0  0  0  0  0
    7.1124   15.3016   -2.6833 H   0  0  0  0  0  0  0  0  0  0  0  0
    6.8752   12.2500    4.2855 H   0  0  0  0  0  0  0  0  0  0  0  0
    8.5387   11.6428    4.6691 H   0  0  0  0  0  0  0  0  0  0  0  0
    7.6885   13.0608   10.3769 H   0  0  0  0  0  0  0  0  0  0  0  0
    8.8558   11.8315    9.7829 H   0  0  0  0  0  0  0  0  0  0  0  0
    9.3053   13.5706    9.7829 H   0  0  0  0  0  0  0  0  0  0  0  0
    5.6441   13.7779    9.8315 H   0  0  0  0  0  0  0  0  0  0  0  0
    2.6002   12.1035    5.5873 H   0  0  0  0  0  0  0  0  0  0  0  0
    0.4156   12.5881    4.5060 H   0  0  0  0  0  0  0  0  0  0  0  0
   -0.4526   14.9235    4.4239 H   0  0  0  0  0  0  0  0  0  0  0  0
    0.8829   16.7777    5.4254 H   0  0  0  0  0  0  0  0  0  0  0  0
    3.0620   16.2980    6.5162 H   0  0  0  0  0  0  0  0  0  0  0  0
  1  2  1  0
  2  3  1  0
  3  4  1  0
  4  5  1  0
  5  6  2  0
  6  7  1  0
  7  8  1  0
  7  9  2  0
  9 10  1  0
 10 11  2  0
 11 12  1  0
  3 13  1  0
 13 14  2  0
 13 15  1  0
 15 16  1  0
 16 17  1  0
 17 18  2  0
 17 19  1  0
 19 20  1  0
 19 21  1  0
 21 22  2  0
 22 23  1  0
 23 24  2  0
 24 25  1  0
 25 26  2  0
 26 27  1  0
 27 28  2  0
 28 29  1  0
 29 30  2  0
 24 31  1  0
 31 32  2  0
 11  5  1  0
 32 16  1  0
 32 21  1  0
 30 25  1  0
  1 33  1  0
  1 34  1  0
  1 35  1  0
  2 36  1  0
  2 37  1  0
  4 38  1  0
  4 39  1  0
  6 40  1  0
  9 41  1  0
 10 42  1  0
 15 43  1  0
 15 44  1  0
 20 45  1  0
 20 46  1  0
 20 47  1  0
 22 48  1  0
 26 49  1  0
 27 50  1  0
 28 51  1  0
 29 52  1  0
 30 53  1  0
M  END
>  <meeko>  (4) 
{"is_sidechain": [false], "free_energy": -6.495, "intermolecular_energy": -9.134, "internal_energy": -1.253}

$$$$
A15_meeko_out
     RDKit          3D

 53 56  0  0  0  0  0  0  0  0999 V2000
    7.1360   14.1710   -0.0740 C   0  0  0  0  0  0  0  0  0  0  0  0
    7.0200   13.9220    1.4220 C   0  0  0  0  0  0  0  0  0  0  0  0
    8.3190   14.0060    2.1040 N   0  0  0  0  0  0  0  0  0  0  0  0
    8.8660   15.3320    2.4070 C   0  0  0  0  0  0  0  0  0  0  0  0
    8.4320   15.8990    3.7400 C   0  0  0  0  0  0  0  0  0  0  0  0
    7.1100   16.3600    3.8900 C   0  0  0  0  0  0  0  0  0  0  0  0
    6.6770   16.8940    5.1040 C   0  0  0  0  0  0  0  0  0  0  0  0
    5.0590   17.4570    5.2600 Cl  0  0  0  0  0  0  0  0  0  0  0  0
    7.5450   16.9750    6.1890 C   0  0  0  0  0  0  0  0  0  0  0  0
    8.8570   16.5190    6.0570 C   0  0  0  0  0  0  0  0  0  0  0  0
    9.3000   15.9840    4.8410 C   0  0  0  0  0  0  0  0  0  0  0  0
   10.9390   15.4460    4.7600 Cl  0  0  0  0  0  0  0  0  0  0  0  0
    8.8500   12.9340    2.8370 C   0  0  0  0  0  0  0  0  0  0  0  0
   10.0350   12.6060    2.7320 O   0  0  0  0  0  0  0  0  0  0  0  0
    7.8870   12.1880    3.7740 C   0  0  0  0  0  0  0  0  0  0  0  0
    7.9430   12.7100    5.1120 N   0  0  0  0  0  0  0  0  0  0  0  0
    9.0320   12.5990    5.9900 C   0  0  0  0  0  0  0  0  0  0  0  0
   10.1500   12.1920    5.7190 O   0  0  0  0  0  0  0  0  0  0  0  0
    8.5750   13.0570    7.2440 N   0  0  0  0  0  0  0  0  0  0  0  0
    9.3250   13.0680    8.4650 C   0  0  0  0  0  0  0  0  0  0  0  0
    7.2170   13.3610    7.1220 C   0  0  0  0  0  0  0  0  0  0  0  0
    6.2670   13.7860    7.9930 C   0  0  0  0  0  0  0  0  0  0  0  0
    4.9940   13.9840    7.5830 N   0  0  0  0  0  0  0  0  0  0  0  0
    4.6980   13.7310    6.2740 C   0  0  0  0  0  0  0  0  0  0  0  0
    3.2990   13.9290    5.8380 C   0  0  0  0  0  0  0  0  0  0  0  0
    2.4990   12.8490    5.4140 C   0  0  0  0  0  0  0  0  0  0  0  0
    1.1750   13.0370    4.9990 C   0  0  0  0  0  0  0  0  0  0  0  0
    0.6200   14.3120    4.9980 C   0  0  0  0  0  0  0  0  0  0  0  0
    1.3850   15.3990    5.4100 C   0  0  0  0  0  0  0  0  0  0  0  0
    2.7060   15.2060    5.8260 C   0  0  0  0  0  0  0  0  0  0  0  0
    5.5880   13.3170    5.3450 N   0  0  0  0  0  0  0  0  0  0  0  0
    6.8200   13.1440    5.8220 C   0  0  0  0  0  0  0  0  0  0  0  0
    7.5947   15.1556   -0.2473 H   0  0  0  0  0  0  0  0  0  0  0  0
    7.7627   13.3894   -0.5283 H   0  0  0  0  0  0  0  0  0  0  0  0
    6.1345   14.1480   -0.5283 H   0  0  0  0  0  0  0  0  0  0  0  0
    6.3442   14.6745    1.8544 H   0  0  0  0  0  0  0  0  0  0  0  0
    6.6306   12.9031    1.5642 H   0  0  0  0  0  0  0  0  0  0  0  0
    9.9636   15.2596    2.4052 H   0  0  0  0  0  0  0  0  0  0  0  0
    8.4791   16.0141    1.6356 H   0  0  0  0  0  0  0  0  0  0  0  0
    6.4121   16.2985    3.0420 H   0  0  0  0  0  0  0  0  0  0  0  0
    7.1988   17.3959    7.1445 H   0  0  0  0  0  0  0  0  0  0  0  0
    9.5465   16.5800    6.9119 H   0  0  0  0  0  0  0  0  0  0  0  0
    6.8613   12.2952    3.3913 H   0  0  0  0  0  0  0  0  0  0  0  0
    8.1855   11.1297    3.8039 H   0  0  0  0  0  0  0  0  0  0  0  0
    8.6333   13.0579    9.3203 H   0  0  0  0  0  0  0  0  0  0  0  0
    9.9719   12.1792    8.5060 H   0  0  0  0  0  0  0  0  0  0  0  0
    9.9455   13.9753    8.5060 H   0  0  0  0  0  0  0  0  0  0  0  0
    6.5355   13.9713    9.0435 H   0  0  0  0  0  0  0  0  0  0  0  0
    2.9246   11.8347    5.4090 H   0  0  0  0  0  0  0  0  0  0  0  0
    0.5735   12.1755    4.6735 H   0  0  0  0  0  0  0  0  0  0  0  0
   -0.4202   14.4609    4.6726 H   0  0  0  0  0  0  0  0  0  0  0  0
    0.9507   16.4096    5.4084 H   0  0  0  0  0  0  0  0  0  0  0  0
    3.2972   16.0743    6.1523 H   0  0  0  0  0  0  0  0  0  0  0  0
  1  2  1  0
  2  3  1  0
  3  4  1  0
  4  5  1  0
  5  6  2  0
  6  7  1  0
  7  8  1  0
  7  9  2  0
  9 10  1  0
 10 11  2  0
 11 12  1  0
  3 13  1  0
 13 14  2  0
 13 15  1  0
 15 16  1  0
 16 17  1  0
 17 18  2  0
 17 19  1  0
 19 20  1  0
 19 21  1  0
 21 22  2  0
 22 23  1  0
 23 24  2  0
 24 25  1  0
 25 26  2  0
 26 27  1  0
 27 28  2  0
 28 29  1  0
 29 30  2  0
 24 31  1  0
 31 32  2  0
 11  5  1  0
 32 16  1  0
 32 21  1  0
 30 25  1  0
  1 33  1  0
  1 34  1  0
  1 35  1  0
  2 36  1  0
  2 37  1  0
  4 38  1  0
  4 39  1  0
  6 40  1  0
  9 41  1  0
 10 42  1  0
 15 43  1  0
 15 44  1  0
 20 45  1  0
 20 46  1  0
 20 47  1  0
 22 48  1  0
 26 49  1  0
 27 50  1  0
 28 51  1  0
 29 52  1  0
 30 53  1  0
M  END
>  <meeko>  (5) 
{"is_sidechain": [false], "free_energy": -6.346, "intermolecular_energy": -7.955, "internal_energy": -2.223}

$$$$
A15_meeko_out
     RDKit          3D

 53 56  0  0  0  0  0  0  0  0999 V2000
   -4.8610   17.9560    3.8850 C   0  0  0  0  0  0  0  0  0  0  0  0
   -3.5920   17.4430    4.5490 C   0  0  0  0  0  0  0  0  0  0  0  0
   -3.0880   18.3640    5.5760 N   0  0  0  0  0  0  0  0  0  0  0  0
   -2.0800   19.3570    5.1920 C   0  0  0  0  0  0  0  0  0  0  0  0
   -0.6500   18.9150    5.4090 C   0  0  0  0  0  0  0  0  0  0  0  0
   -0.1580   18.8120    6.7240 C   0  0  0  0  0  0  0  0  0  0  0  0
    1.1580   18.4130    6.9610 C   0  0  0  0  0  0  0  0  0  0  0  0
    1.7380   18.3030    8.5770 Cl  0  0  0  0  0  0  0  0  0  0  0  0
    2.0040   18.1040    5.9000 C   0  0  0  0  0  0  0  0  0  0  0  0
    1.5290   18.1980    4.5920 C   0  0  0  0  0  0  0  0  0  0  0  0
    0.2110   18.6000    4.3440 C   0  0  0  0  0  0  0  0  0  0  0  0
   -0.2960   18.6930    2.6960 Cl  0  0  0  0  0  0  0  0  0  0  0  0
   -3.7940   18.6250    6.7600 C   0  0  0  0  0  0  0  0  0  0  0  0
   -4.0040   19.7790    7.1440 O   0  0  0  0  0  0  0  0  0  0  0  0
   -4.2910   17.4070    7.5550 C   0  0  0  0  0  0  0  0  0  0  0  0
   -3.5400   17.2280    8.7680 N   0  0  0  0  0  0  0  0  0  0  0  0
   -3.7400   17.9290    9.9670 C   0  0  0  0  0  0  0  0  0  0  0  0
   -4.6650   18.6810   10.2290 O   0  0  0  0  0  0  0  0  0  0  0  0
   -2.6580   17.5890   10.8070 N   0  0  0  0  0  0  0  0  0  0  0  0
   -2.4040   18.1170   12.1150 C   0  0  0  0  0  0  0  0  0  0  0  0
   -1.7980   16.7590   10.0850 C   0  0  0  0  0  0  0  0  0  0  0  0
   -0.6020   16.1770   10.3590 C   0  0  0  0  0  0  0  0  0  0  0  0
    0.0240   15.4170    9.4330 N   0  0  0  0  0  0  0  0  0  0  0  0
   -0.5780   15.2680    8.2160 C   0  0  0  0  0  0  0  0  0  0  0  0
    0.1240   14.4530    7.2010 C   0  0  0  0  0  0  0  0  0  0  0  0
    0.6700   13.1930    7.5160 C   0  0  0  0  0  0  0  0  0  0  0  0
    1.3370   12.4240    6.5550 C   0  0  0  0  0  0  0  0  0  0  0  0
    1.4750   12.8980    5.2550 C   0  0  0  0  0  0  0  0  0  0  0  0
    0.9480   14.1410    4.9140 C   0  0  0  0  0  0  0  0  0  0  0  0
    0.2810   14.9050    5.8760 C   0  0  0  0  0  0  0  0  0  0  0  0
   -1.7690   15.8040    7.8710 N   0  0  0  0  0  0  0  0  0  0  0  0
   -2.3260   16.5380    8.8330 C   0  0  0  0  0  0  0  0  0  0  0  0
   -5.5865   18.2493    4.6581 H   0  0  0  0  0  0  0  0  0  0  0  0
   -4.6204   18.8275    3.2584 H   0  0  0  0  0  0  0  0  0  0  0  0
   -5.2936   17.1621    3.2584 H   0  0  0  0  0  0  0  0  0  0  0  0
   -3.8067   16.4721    5.0194 H   0  0  0  0  0  0  0  0  0  0  0  0
   -2.8193   17.3510    3.7715 H   0  0  0  0  0  0  0  0  0  0  0  0
   -2.2111   19.5843    4.1237 H   0  0  0  0  0  0  0  0  0  0  0  0
   -2.2391   20.2313    5.8403 H   0  0  0  0  0  0  0  0  0  0  0  0
   -0.8170   19.0482    7.5725 H   0  0  0  0  0  0  0  0  0  0  0  0
    3.0400   17.7879    6.0916 H   0  0  0  0  0  0  0  0  0  0  0  0
    2.1939   17.9548    3.7501 H   0  0  0  0  0  0  0  0  0  0  0  0
   -5.3510   17.5543    7.8092 H   0  0  0  0  0  0  0  0  0  0  0  0
   -4.1590   16.5104    6.9316 H   0  0  0  0  0  0  0  0  0  0  0  0
   -2.7493   17.3992   12.8736 H   0  0  0  0  0  0  0  0  0  0  0  0
   -1.3245   18.2892   12.2376 H   0  0  0  0  0  0  0  0  0  0  0  0
   -2.9432   19.0679   12.2376 H   0  0  0  0  0  0  0  0  0  0  0  0
   -0.1377   16.3257   11.3451 H   0  0  0  0  0  0  0  0  0  0  0  0
    0.5699   12.8047    8.5403 H   0  0  0  0  0  0  0  0  0  0  0  0
    1.7527   11.4430    6.8287 H   0  0  0  0  0  0  0  0  0  0  0  0
    1.9982   12.2937    4.4993 H   0  0  0  0  0  0  0  0  0  0  0  0
    1.0566   14.5217    3.8877 H   0  0  0  0  0  0  0  0  0  0  0  0
   -0.1318   15.8840    5.5912 H   0  0  0  0  0  0  0  0  0  0  0  0
  1  2  1  0
  2  3  1  0
  3  4  1  0
  4  5  1  0
  5  6  2  0
  6  7  1  0
  7  8  1  0
  7  9  2  0
  9 10  1  0
 10 11  2  0
 11 12  1  0
  3 13  1  0
 13 14  2  0
 13 15  1  0
 15 16  1  0
 16 17  1  0
 17 18  2  0
 17 19  1  0
 19 20  1  0
 19 21  1  0
 21 22  2  0
 22 23  1  0
 23 24  2  0
 24 25  1  0
 25 26  2  0
 26 27  1  0
 27 28  2  0
 28 29  1  0
 29 30  2  0
 24 31  1  0
 31 32  2  0
 11  5  1  0
 32 16  1  0
 32 21  1  0
 30 25  1  0
  1 33  1  0
  1 34  1  0
  1 35  1  0
  2 36  1  0
  2 37  1  0
  4 38  1  0
  4 39  1  0
  6 40  1  0
  9 41  1  0
 10 42  1  0
 15 43  1  0
 15 44  1  0
 20 45  1  0
 20 46  1  0
 20 47  1  0
 22 48  1  0
 26 49  1  0
 27 50  1  0
 28 51  1  0
 29 52  1  0
 30 53  1  0
M  END
>  <meeko>  (6) 
{"is_sidechain": [false], "free_energy": -6.302, "intermolecular_energy": -7.555, "internal_energy": -2.561}

$$$$
A15_meeko_out
     RDKit          3D

 53 56  0  0  0  0  0  0  0  0999 V2000
    4.7980   13.8230    9.0500 C   0  0  0  0  0  0  0  0  0  0  0  0
    4.5570   15.0860    8.2370 C   0  0  0  0  0  0  0  0  0  0  0  0
    4.4710   14.8140    6.7970 N   0  0  0  0  0  0  0  0  0  0  0  0
    3.2840   15.2700    6.0670 C   0  0  0  0  0  0  0  0  0  0  0  0
    1.9710   14.7960    6.6480 C   0  0  0  0  0  0  0  0  0  0  0  0
    1.2890   15.6200    7.5630 C   0  0  0  0  0  0  0  0  0  0  0  0
    0.0780   15.2120    8.1230 C   0  0  0  0  0  0  0  0  0  0  0  0
   -0.7320   16.2350    9.2440 Cl  0  0  0  0  0  0  0  0  0  0  0  0
   -0.4790   13.9840    7.7810 C   0  0  0  0  0  0  0  0  0  0  0  0
    0.1830   13.1570    6.8720 C   0  0  0  0  0  0  0  0  0  0  0  0
    1.4000   13.5570    6.3080 C   0  0  0  0  0  0  0  0  0  0  0  0
    2.1550   12.4740    5.1950 Cl  0  0  0  0  0  0  0  0  0  0  0  0
    5.6040   14.5320    6.0190 C   0  0  0  0  0  0  0  0  0  0  0  0
    6.5370   15.3340    5.9230 O   0  0  0  0  0  0  0  0  0  0  0  0
    5.6270   13.1780    5.2910 C   0  0  0  0  0  0  0  0  0  0  0  0
    6.9620   12.6540    5.1920 N   0  0  0  0  0  0  0  0  0  0  0  0
    7.7180   12.1320    6.2520 C   0  0  0  0  0  0  0  0  0  0  0  0
    7.3240   11.8920    7.3820 O   0  0  0  0  0  0  0  0  0  0  0  0
    9.0220   11.9390    5.7480 N   0  0  0  0  0  0  0  0  0  0  0  0
   10.1580   11.4820    6.4930 C   0  0  0  0  0  0  0  0  0  0  0  0
    9.0490   12.4110    4.4340 C   0  0  0  0  0  0  0  0  0  0  0  0
   10.0230   12.5230    3.4950 C   0  0  0  0  0  0  0  0  0  0  0  0
    9.7520   13.0500    2.2790 N   0  0  0  0  0  0  0  0  0  0  0  0
    8.4770   13.4740    2.0370 C   0  0  0  0  0  0  0  0  0  0  0  0
    8.1940   14.0690    0.7130 C   0  0  0  0  0  0  0  0  0  0  0  0
    9.1730   14.7980    0.0080 C   0  0  0  0  0  0  0  0  0  0  0  0
    8.9040   15.3630   -1.2440 C   0  0  0  0  0  0  0  0  0  0  0  0
    7.6480   15.2140   -1.8210 C   0  0  0  0  0  0  0  0  0  0  0  0
    6.6600   14.5010   -1.1490 C   0  0  0  0  0  0  0  0  0  0  0  0
    6.9330   13.9360    0.1010 C   0  0  0  0  0  0  0  0  0  0  0  0
    7.4520   13.3860    2.9130 N   0  0  0  0  0  0  0  0  0  0  0  0
    7.7940   12.8570    4.0870 C   0  0  0  0  0  0  0  0  0  0  0  0
    4.7522   14.0630   10.1225 H   0  0  0  0  0  0  0  0  0  0  0  0
    4.0258   13.0780    8.8077 H   0  0  0  0  0  0  0  0  0  0  0  0
    5.7903   13.4147    8.8077 H   0  0  0  0  0  0  0  0  0  0  0  0
    3.6133   15.5446    8.5673 H   0  0  0  0  0  0  0  0  0  0  0  0
    5.4106   15.7600    8.4016 H   0  0  0  0  0  0  0  0  0  0  0  0
    3.2824   16.3700    6.0663 H   0  0  0  0  0  0  0  0  0  0  0  0
    3.3530   14.8398    5.0570 H   0  0  0  0  0  0  0  0  0  0  0  0
    1.7152   16.5957    7.8394 H   0  0  0  0  0  0  0  0  0  0  0  0
   -1.4346   13.6668    8.2239 H   0  0  0  0  0  0  0  0  0  0  0  0
   -0.2541   12.1856    6.5974 H   0  0  0  0  0  0  0  0  0  0  0  0
    5.0030   12.4629    5.8470 H   0  0  0  0  0  0  0  0  0  0  0  0
    5.2394   13.3279    4.2725 H   0  0  0  0  0  0  0  0  0  0  0  0
    9.9485   11.5663    7.5696 H   0  0  0  0  0  0  0  0  0  0  0  0
   10.3635   10.4312    6.2406 H   0  0  0  0  0  0  0  0  0  0  0  0
   11.0339   12.0977    6.2406 H   0  0  0  0  0  0  0  0  0  0  0  0
   11.0430   12.1817    3.7253 H   0  0  0  0  0  0  0  0  0  0  0  0
   10.1713   14.9258    0.4520 H   0  0  0  0  0  0  0  0  0  0  0  0
    9.6877   15.9258   -1.7723 H   0  0  0  0  0  0  0  0  0  0  0  0
    7.4361   15.6580   -2.8049 H   0  0  0  0  0  0  0  0  0  0  0  0
    5.6642   14.3817   -1.6008 H   0  0  0  0  0  0  0  0  0  0  0  0
    6.1424   13.3734    0.6191 H   0  0  0  0  0  0  0  0  0  0  0  0
  1  2  1  0
  2  3  1  0
  3  4  1  0
  4  5  1  0
  5  6  2  0
  6  7  1  0
  7  8  1  0
  7  9  2  0
  9 10  1  0
 10 11  2  0
 11 12  1  0
  3 13  1  0
 13 14  2  0
 13 15  1  0
 15 16  1  0
 16 17  1  0
 17 18  2  0
 17 19  1  0
 19 20  1  0
 19 21  1  0
 21 22  2  0
 22 23  1  0
 23 24  2  0
 24 25  1  0
 25 26  2  0
 26 27  1  0
 27 28  2  0
 28 29  1  0
 29 30  2  0
 24 31  1  0
 31 32  2  0
 11  5  1  0
 32 16  1  0
 32 21  1  0
 30 25  1  0
  1 33  1  0
  1 34  1  0
  1 35  1  0
  2 36  1  0
  2 37  1  0
  4 38  1  0
  4 39  1  0
  6 40  1  0
  9 41  1  0
 10 42  1  0
 15 43  1  0
 15 44  1  0
 20 45  1  0
 20 46  1  0
 20 47  1  0
 22 48  1  0
 26 49  1  0
 27 50  1  0
 28 51  1  0
 29 52  1  0
 30 53  1  0
M  END
>  <meeko>  (7) 
{"is_sidechain": [false], "free_energy": -6.263, "intermolecular_energy": -8.95, "internal_energy": -1.111}

$$$$
A15_meeko_out
     RDKit          3D

 53 56  0  0  0  0  0  0  0  0999 V2000
    0.1120   19.1510    1.7080 C   0  0  0  0  0  0  0  0  0  0  0  0
   -0.4730   18.3040    2.8280 C   0  0  0  0  0  0  0  0  0  0  0  0
   -0.6600   19.0700    4.0670 N   0  0  0  0  0  0  0  0  0  0  0  0
    0.5160   19.6770    4.6980 C   0  0  0  0  0  0  0  0  0  0  0  0
    1.1620   18.8270    5.7690 C   0  0  0  0  0  0  0  0  0  0  0  0
    2.0830   17.8320    5.3900 C   0  0  0  0  0  0  0  0  0  0  0  0
    2.6950   17.0260    6.3510 C   0  0  0  0  0  0  0  0  0  0  0  0
    3.8110   15.8120    5.8620 Cl  0  0  0  0  0  0  0  0  0  0  0  0
    2.4070   17.1960    7.7020 C   0  0  0  0  0  0  0  0  0  0  0  0
    1.4980   18.1800    8.0930 C   0  0  0  0  0  0  0  0  0  0  0  0
    0.8790   18.9920    7.1350 C   0  0  0  0  0  0  0  0  0  0  0  0
   -0.2350   20.1840    7.7030 Cl  0  0  0  0  0  0  0  0  0  0  0  0
   -1.9050   19.5960    4.4420 C   0  0  0  0  0  0  0  0  0  0  0  0
   -2.0850   20.8120    4.5500 O   0  0  0  0  0  0  0  0  0  0  0  0
   -3.0320   18.5870    4.7150 C   0  0  0  0  0  0  0  0  0  0  0  0
   -3.1800   18.3290    6.1210 N   0  0  0  0  0  0  0  0  0  0  0  0
   -3.8570   19.1470    7.0380 C   0  0  0  0  0  0  0  0  0  0  0  0
   -4.5550   20.1140    6.7780 O   0  0  0  0  0  0  0  0  0  0  0  0
   -3.5700   18.6260    8.3180 N   0  0  0  0  0  0  0  0  0  0  0  0
   -3.9940   19.1780    9.5700 C   0  0  0  0  0  0  0  0  0  0  0  0
   -2.6780   17.5630    8.1590 C   0  0  0  0  0  0  0  0  0  0  0  0
   -2.0340   16.7380    9.0230 C   0  0  0  0  0  0  0  0  0  0  0  0
   -1.1920   15.7830    8.5690 N   0  0  0  0  0  0  0  0  0  0  0  0
   -1.0040   15.6870    7.2200 C   0  0  0  0  0  0  0  0  0  0  0  0
   -0.0640   14.6550    6.7320 C   0  0  0  0  0  0  0  0  0  0  0  0
    0.2530   14.5330    5.3640 C   0  0  0  0  0  0  0  0  0  0  0  0
    1.1400   13.5540    4.9030 C   0  0  0  0  0  0  0  0  0  0  0  0
    1.7320   12.6710    5.8000 C   0  0  0  0  0  0  0  0  0  0  0  0
    1.4380   12.7650    7.1570 C   0  0  0  0  0  0  0  0  0  0  0  0
    0.5520   13.7460    7.6140 C   0  0  0  0  0  0  0  0  0  0  0  0
   -1.6140   16.4620    6.2960 N   0  0  0  0  0  0  0  0  0  0  0  0
   -2.4280   17.3780    6.8180 C   0  0  0  0  0  0  0  0  0  0  0  0
    0.6869   19.9834    2.1398 H   0  0  0  0  0  0  0  0  0  0  0  0
    0.7751   18.5306    1.0871 H   0  0  0  0  0  0  0  0  0  0  0  0
   -0.7030   19.5514    1.0871 H   0  0  0  0  0  0  0  0  0  0  0  0
   -1.4485   17.9131    2.5032 H   0  0  0  0  0  0  0  0  0  0  0  0
    0.2359   17.4899    3.0395 H   0  0  0  0  0  0  0  0  0  0  0  0
    1.2643   19.8707    3.9153 H   0  0  0  0  0  0  0  0  0  0  0  0
    0.1661   20.5938    5.1950 H   0  0  0  0  0  0  0  0  0  0  0  0
    2.3226   17.6884    4.3261 H   0  0  0  0  0  0  0  0  0  0  0  0
    2.8925   16.5592    8.4562 H   0  0  0  0  0  0  0  0  0  0  0  0
    1.2666   18.3184    9.1594 H   0  0  0  0  0  0  0  0  0  0  0  0
   -3.9771   18.9927    4.3248 H   0  0  0  0  0  0  0  0  0  0  0  0
   -2.7759   17.6408    4.2160 H   0  0  0  0  0  0  0  0  0  0  0  0
   -3.5504   18.6004   10.3944 H   0  0  0  0  0  0  0  0  0  0  0  0
   -3.6663   20.2258    9.6385 H   0  0  0  0  0  0  0  0  0  0  0  0
   -5.0909   19.1316    9.6385 H   0  0  0  0  0  0  0  0  0  0  0  0
   -2.1991   16.8477   10.1050 H   0  0  0  0  0  0  0  0  0  0  0  0
   -0.2076   15.2234    4.6421 H   0  0  0  0  0  0  0  0  0  0  0  0
    1.3695   13.4825    3.8296 H   0  0  0  0  0  0  0  0  0  0  0  0
    2.4298   11.9015    5.4382 H   0  0  0  0  0  0  0  0  0  0  0  0
    1.9023   12.0679    7.8700 H   0  0  0  0  0  0  0  0  0  0  0  0
    0.3307   13.8092    8.6896 H   0  0  0  0  0  0  0  0  0  0  0  0
  1  2  1  0
  2  3  1  0
  3  4  1  0
  4  5  1  0
  5  6  2  0
  6  7  1  0
  7  8  1  0
  7  9  2  0
  9 10  1  0
 10 11  2  0
 11 12  1  0
  3 13  1  0
 13 14  2  0
 13 15  1  0
 15 16  1  0
 16 17  1  0
 17 18  2  0
 17 19  1  0
 19 20  1  0
 19 21  1  0
 21 22  2  0
 22 23  1  0
 23 24  2  0
 24 25  1  0
 25 26  2  0
 26 27  1  0
 27 28  2  0
 28 29  1  0
 29 30  2  0
 24 31  1  0
 31 32  2  0
 11  5  1  0
 32 16  1  0
 32 21  1  0
 30 25  1  0
  1 33  1  0
  1 34  1  0
  1 35  1  0
  2 36  1  0
  2 37  1  0
  4 38  1  0
  4 39  1  0
  6 40  1  0
  9 41  1  0
 10 42  1  0
 15 43  1  0
 15 44  1  0
 20 45  1  0
 20 46  1  0
 20 47  1  0
 22 48  1  0
 26 49  1  0
 27 50  1  0
 28 51  1  0
 29 52  1  0
 30 53  1  0
M  END
>  <meeko>  (8) 
{"is_sidechain": [false], "free_energy": -6.24, "intermolecular_energy": -6.6, "internal_energy": -3.428}

$$$$
A15_meeko_out
     RDKit          3D

 53 56  0  0  0  0  0  0  0  0999 V2000
    3.1250   18.9850   10.1970 C   0  0  0  0  0  0  0  0  0  0  0  0
    2.5970   19.1700    8.7820 C   0  0  0  0  0  0  0  0  0  0  0  0
    1.1340   19.0540    8.7130 N   0  0  0  0  0  0  0  0  0  0  0  0
    0.4560   18.1660    9.6620 C   0  0  0  0  0  0  0  0  0  0  0  0
    0.2570   16.7520    9.1650 C   0  0  0  0  0  0  0  0  0  0  0  0
    1.2640   15.7970    9.3990 C   0  0  0  0  0  0  0  0  0  0  0  0
    1.1170   14.4830    8.9500 C   0  0  0  0  0  0  0  0  0  0  0  0
    2.3650   13.3370    9.2420 Cl  0  0  0  0  0  0  0  0  0  0  0  0
   -0.0320   14.0960    8.2680 C   0  0  0  0  0  0  0  0  0  0  0  0
   -1.0410   15.0310    8.0320 C   0  0  0  0  0  0  0  0  0  0  0  0
   -0.9000   16.3510    8.4770 C   0  0  0  0  0  0  0  0  0  0  0  0
   -2.1930   17.4460    8.1410 Cl  0  0  0  0  0  0  0  0  0  0  0  0
    0.3340   20.0290    8.0970 C   0  0  0  0  0  0  0  0  0  0  0  0
   -0.6490   20.5100    8.6670 O   0  0  0  0  0  0  0  0  0  0  0  0
    0.7390   20.4650    6.6800 C   0  0  0  0  0  0  0  0  0  0  0  0
   -0.1970   19.9950    5.6960 N   0  0  0  0  0  0  0  0  0  0  0  0
   -1.3430   20.6780    5.2620 C   0  0  0  0  0  0  0  0  0  0  0  0
   -1.6500   21.8300    5.5220 O   0  0  0  0  0  0  0  0  0  0  0  0
   -2.0670   19.7660    4.4640 N   0  0  0  0  0  0  0  0  0  0  0  0
   -3.3430   20.0010    3.8560 C   0  0  0  0  0  0  0  0  0  0  0  0
   -1.3930   18.5430    4.4900 C   0  0  0  0  0  0  0  0  0  0  0  0
   -1.6430   17.3190    3.9580 C   0  0  0  0  0  0  0  0  0  0  0  0
   -0.7960   16.2870    4.1710 N   0  0  0  0  0  0  0  0  0  0  0  0
    0.3060   16.5150    4.9460 C   0  0  0  0  0  0  0  0  0  0  0  0
    1.2150   15.3750    5.1930 C   0  0  0  0  0  0  0  0  0  0  0  0
    2.5110   15.5660    5.7120 C   0  0  0  0  0  0  0  0  0  0  0  0
    3.3730   14.4870    5.9430 C   0  0  0  0  0  0  0  0  0  0  0  0
    2.9580   13.1910    5.6590 C   0  0  0  0  0  0  0  0  0  0  0  0
    1.6840   12.9710    5.1440 C   0  0  0  0  0  0  0  0  0  0  0  0
    0.8260   14.0510    4.9170 C   0  0  0  0  0  0  0  0  0  0  0  0
    0.6290   17.7040    5.5020 N   0  0  0  0  0  0  0  0  0  0  0  0
   -0.2500   18.6720    5.2480 C   0  0  0  0  0  0  0  0  0  0  0  0
    2.3420   19.2593   10.9193 H   0  0  0  0  0  0  0  0  0  0  0  0
    3.4103   17.9333   10.3473 H   0  0  0  0  0  0  0  0  0  0  0  0
    4.0043   19.6286   10.3473 H   0  0  0  0  0  0  0  0  0  0  0  0
    2.8901   20.1675    8.4227 H   0  0  0  0  0  0  0  0  0  0  0  0
    3.0275   18.3748    8.1556 H   0  0  0  0  0  0  0  0  0  0  0  0
    1.0559   18.1252   10.5831 H   0  0  0  0  0  0  0  0  0  0  0  0
   -0.5481   18.5860    9.8210 H   0  0  0  0  0  0  0  0  0  0  0  0
    2.1758   16.0886    9.9409 H   0  0  0  0  0  0  0  0  0  0  0  0
   -0.1446   13.0596    7.9169 H   0  0  0  0  0  0  0  0  0  0  0  0
   -1.9516   14.7293    7.4937 H   0  0  0  0  0  0  0  0  0  0  0  0
    0.7767   21.5637    6.6413 H   0  0  0  0  0  0  0  0  0  0  0  0
    1.7241   20.0309    6.4539 H   0  0  0  0  0  0  0  0  0  0  0  0
   -4.1023   20.1408    4.6395 H   0  0  0  0  0  0  0  0  0  0  0  0
   -3.2905   20.9046    3.2309 H   0  0  0  0  0  0  0  0  0  0  0  0
   -3.6158   19.1380    3.2309 H   0  0  0  0  0  0  0  0  0  0  0  0
   -2.5447   17.1654    3.3469 H   0  0  0  0  0  0  0  0  0  0  0  0
    2.8534   16.5860    5.9409 H   0  0  0  0  0  0  0  0  0  0  0  0
    4.3795   14.6650    6.3496 H   0  0  0  0  0  0  0  0  0  0  0  0
    3.6341   12.3425    5.8407 H   0  0  0  0  0  0  0  0  0  0  0  0
    1.3522   11.9474    4.9156 H   0  0  0  0  0  0  0  0  0  0  0  0
   -0.1790   13.8611    4.5122 H   0  0  0  0  0  0  0  0  0  0  0  0
  1  2  1  0
  2  3  1  0
  3  4  1  0
  4  5  1  0
  5  6  2  0
  6  7  1  0
  7  8  1  0
  7  9  2  0
  9 10  1  0
 10 11  2  0
 11 12  1  0
  3 13  1  0
 13 14  2  0
 13 15  1  0
 15 16  1  0
 16 17  1  0
 17 18  2  0
 17 19  1  0
 19 20  1  0
 19 21  1  0
 21 22  2  0
 22 23  1  0
 23 24  2  0
 24 25  1  0
 25 26  2  0
 26 27  1  0
 27 28  2  0
 28 29  1  0
 29 30  2  0
 24 31  1  0
 31 32  2  0
 11  5  1  0
 32 16  1  0
 32 21  1  0
 30 25  1  0
  1 33  1  0
  1 34  1  0
  1 35  1  0
  2 36  1  0
  2 37  1  0
  4 38  1  0
  4 39  1  0
  6 40  1  0
  9 41  1  0
 10 42  1  0
 15 43  1  0
 15 44  1  0
 20 45  1  0
 20 46  1  0
 20 47  1  0
 22 48  1  0
 26 49  1  0
 27 50  1  0
 28 51  1  0
 29 52  1  0
 30 53  1  0
M  END
>  <meeko>  (9) 
{"is_sidechain": [false], "free_energy": -6.239, "intermolecular_energy": -6.749, "internal_energy": -3.277}

$$$$
A15_meeko_out
     RDKit          3D

 53 56  0  0  0  0  0  0  0  0999 V2000
    5.5120   13.4400    9.6050 C   0  0  0  0  0  0  0  0  0  0  0  0
    6.1940   14.5490    8.8170 C   0  0  0  0  0  0  0  0  0  0  0  0
    5.5210   14.8220    7.5410 N   0  0  0  0  0  0  0  0  0  0  0  0
    4.3970   15.7630    7.5290 C   0  0  0  0  0  0  0  0  0  0  0  0
    3.1420   15.2320    6.8740 C   0  0  0  0  0  0  0  0  0  0  0  0
    2.6540   13.9660    7.2520 C   0  0  0  0  0  0  0  0  0  0  0  0
    1.5020   13.4420    6.6650 C   0  0  0  0  0  0  0  0  0  0  0  0
    0.9320   11.8910    7.1400 Cl  0  0  0  0  0  0  0  0  0  0  0  0
    0.8120   14.1670    5.6980 C   0  0  0  0  0  0  0  0  0  0  0  0
    1.2800   15.4240    5.3140 C   0  0  0  0  0  0  0  0  0  0  0  0
    2.4370   15.9560    5.8970 C   0  0  0  0  0  0  0  0  0  0  0  0
    2.9510   17.5160    5.3640 Cl  0  0  0  0  0  0  0  0  0  0  0  0
    6.1340   14.5740    6.3030 C   0  0  0  0  0  0  0  0  0  0  0  0
    6.7580   15.4550    5.7050 O   0  0  0  0  0  0  0  0  0  0  0  0
    5.9870   13.1570    5.7270 C   0  0  0  0  0  0  0  0  0  0  0  0
    7.2680   12.5490    5.4900 N   0  0  0  0  0  0  0  0  0  0  0  0
    8.0870   11.9560    6.4640 C   0  0  0  0  0  0  0  0  0  0  0  0
    7.7890   11.7190    7.6230 O   0  0  0  0  0  0  0  0  0  0  0  0
    9.3200   11.6890    5.8310 N   0  0  0  0  0  0  0  0  0  0  0  0
   10.4890   11.1430    6.4540 C   0  0  0  0  0  0  0  0  0  0  0  0
    9.2510   12.1840    4.5270 C   0  0  0  0  0  0  0  0  0  0  0  0
   10.1340   12.2520    3.4990 C   0  0  0  0  0  0  0  0  0  0  0  0
    9.7830   12.8210    2.3230 N   0  0  0  0  0  0  0  0  0  0  0  0
    8.5210   13.3320    2.2130 C   0  0  0  0  0  0  0  0  0  0  0  0
    8.1520   13.9720    0.9320 C   0  0  0  0  0  0  0  0  0  0  0  0
    9.1020   14.6620    0.1520 C   0  0  0  0  0  0  0  0  0  0  0  0
    8.7510   15.2700   -1.0590 C   0  0  0  0  0  0  0  0  0  0  0  0
    7.4410   15.2030   -1.5190 C   0  0  0  0  0  0  0  0  0  0  0  0
    6.4800   14.5300   -0.7700 C   0  0  0  0  0  0  0  0  0  0  0  0
    6.8340   13.9220    0.4380 C   0  0  0  0  0  0  0  0  0  0  0  0
    7.5830   13.2940    3.1850 N   0  0  0  0  0  0  0  0  0  0  0  0
    8.0010   12.7200    4.3120 C   0  0  0  0  0  0  0  0  0  0  0  0
    5.6290   13.6302   10.6821 H   0  0  0  0  0  0  0  0  0  0  0  0
    4.4420   13.4146    9.3512 H   0  0  0  0  0  0  0  0  0  0  0  0
    5.9721   12.4736    9.3512 H   0  0  0  0  0  0  0  0  0  0  0  0
    6.1896   15.4673    9.4226 H   0  0  0  0  0  0  0  0  0  0  0  0
    7.2194   14.2202    8.5926 H   0  0  0  0  0  0  0  0  0  0  0  0
    4.1569   16.0247    8.5701 H   0  0  0  0  0  0  0  0  0  0  0  0
    4.7197   16.6284    6.9315 H   0  0  0  0  0  0  0  0  0  0  0  0
    3.1870   13.3841    8.0184 H   0  0  0  0  0  0  0  0  0  0  0  0
   -0.0972   13.7514    5.2391 H   0  0  0  0  0  0  0  0  0  0  0  0
    0.7377   16.0000    4.5497 H   0  0  0  0  0  0  0  0  0  0  0  0
    5.4240   12.5377    6.4408 H   0  0  0  0  0  0  0  0  0  0  0  0
    5.4559   13.2284    4.7664 H   0  0  0  0  0  0  0  0  0  0  0  0
   10.3796   11.1941    7.5474 H   0  0  0  0  0  0  0  0  0  0  0  0
   10.6124   10.0941    6.1465 H   0  0  0  0  0  0  0  0  0  0  0  0
   11.3725   11.7216    6.1465 H   0  0  0  0  0  0  0  0  0  0  0  0
   11.1463   11.8399    3.6232 H   0  0  0  0  0  0  0  0  0  0  0  0
   10.1427   14.7241    0.5029 H   0  0  0  0  0  0  0  0  0  0  0  0
    9.5131   15.8017   -1.6476 H   0  0  0  0  0  0  0  0  0  0  0  0
    7.1649   15.6799   -2.4710 H   0  0  0  0  0  0  0  0  0  0  0  0
    5.4415   14.4765   -1.1288 H   0  0  0  0  0  0  0  0  0  0  0  0
    6.0640   13.3913    1.0172 H   0  0  0  0  0  0  0  0  0  0  0  0
  1  2  1  0
  2  3  1  0
  3  4  1  0
  4  5  1  0
  5  6  2  0
  6  7  1  0
  7  8  1  0
  7  9  2  0
  9 10  1  0
 10 11  2  0
 11 12  1  0
  3 13  1  0
 13 14  2  0
 13 15  1  0
 15 16  1  0
 16 17  1  0
 17 18  2  0
 17 19  1  0
 19 20  1  0
 19 21  1  0
 21 22  2  0
 22 23  1  0
 23 24  2  0
 24 25  1  0
 25 26  2  0
 26 27  1  0
 27 28  2  0
 28 29  1  0
 29 30  2  0
 24 31  1  0
 31 32  2  0
 11  5  1  0
 32 16  1  0
 32 21  1  0
 30 25  1  0
  1 33  1  0
  1 34  1  0
  1 35  1  0
  2 36  1  0
  2 37  1  0
  4 38  1  0
  4 39  1  0
  6 40  1  0
  9 41  1  0
 10 42  1  0
 15 43  1  0
 15 44  1  0
 20 45  1  0
 20 46  1  0
 20 47  1  0
 22 48  1  0
 26 49  1  0
 27 50  1  0
 28 51  1  0
 29 52  1  0
 30 53  1  0
M  END
>  <meeko>  (10) 
{"is_sidechain": [false], "free_energy": -6.236, "intermolecular_energy": -8.554, "internal_energy": -1.468}

$$$$
