A15_fine14_out
     RDKit          3D

 56 59  0  0  0  0  0  0  0  0999 V2000
    2.9840   13.1600    9.6330 C   0  0  0  0  0  0  0  0  0  0  0  0
    2.6210   14.4090    8.8450 C   0  0  0  0  0  0  0  0  0  0  0  0
    3.7720   15.0320    8.1820 N   0  0  0  0  0  0  0  0  0  0  0  0
    3.8050   15.0100    6.7170 C   0  0  0  0  0  0  0  0  0  0  0  0
    2.4600   15.2870    6.0670 C   0  0  0  0  0  0  0  0  0  0  0  0
    1.9920   16.6160    6.0320 C   0  0  0  0  0  0  0  0  0  0  0  0
    0.7670   16.9240    5.4530 C   0  0  0  0  0  0  0  0  0  0  0  0
    0.3420   18.1930    5.4400 F   0  0  0  0  0  0  0  0  0  0  0  0
   -0.0210   15.9340    4.8880 C   0  0  0  0  0  0  0  0  0  0  0  0
    0.4280   14.6130    4.8980 C   0  0  0  0  0  0  0  0  0  0  0  0
    1.6680   14.2700    5.4770 C   0  0  0  0  0  0  0  0  0  0  0  0
    2.1100   12.8220    5.4470 C   0  0  0  0  0  0  0  0  0  0  0  0
    3.4370   12.6870    5.1780 F   0  0  0  0  0  0  0  0  0  0  0  0
    1.4660   12.0720    4.5090 F   0  0  0  0  0  0  0  0  0  0  0  0
    1.8980   12.1870    6.6320 F   0  0  0  0  0  0  0  0  0  0  0  0
    4.7920   15.7100    8.8490 C   0  0  0  0  0  0  0  0  0  0  0  0
    4.5430   16.5170    9.7530 O   0  0  0  0  0  0  0  0  0  0  0  0
    6.2530   15.4260    8.4770 C   0  0  0  0  0  0  0  0  0  0  0  0
    6.6730   14.0650    8.6930 N   0  0  0  0  0  0  0  0  0  0  0  0
    6.6780   13.3810    9.9200 C   0  0  0  0  0  0  0  0  0  0  0  0
    6.2650   13.7990   10.9880 O   0  0  0  0  0  0  0  0  0  0  0  0
    7.2460   12.1160    9.6640 N   0  0  0  0  0  0  0  0  0  0  0  0
    7.4680   11.0760   10.6250 C   0  0  0  0  0  0  0  0  0  0  0  0
    7.5970   12.0640    8.3150 C   0  0  0  0  0  0  0  0  0  0  0  0
    8.1800   11.1210    7.5300 C   0  0  0  0  0  0  0  0  0  0  0  0
    8.4030   11.3580    6.2180 N   0  0  0  0  0  0  0  0  0  0  0  0
    8.0290   12.5700    5.7160 C   0  0  0  0  0  0  0  0  0  0  0  0
    8.2620   12.8240    4.2790 C   0  0  0  0  0  0  0  0  0  0  0  0
    9.5070   12.5620    3.6740 C   0  0  0  0  0  0  0  0  0  0  0  0
    9.7250   12.8010    2.3130 C   0  0  0  0  0  0  0  0  0  0  0  0
    8.6990   13.3090    1.5210 C   0  0  0  0  0  0  0  0  0  0  0  0
    7.4580   13.5770    2.0890 C   0  0  0  0  0  0  0  0  0  0  0  0
    7.2430   13.3370    3.4490 C   0  0  0  0  0  0  0  0  0  0  0  0
    7.4530   13.5560    6.4360 N   0  0  0  0  0  0  0  0  0  0  0  0
    7.2570   13.2550    7.7150 C   0  0  0  0  0  0  0  0  0  0  0  0
    2.9215   13.3749   10.7100 H   0  0  0  0  0  0  0  0  0  0  0  0
    2.2841   12.3502    9.3795 H   0  0  0  0  0  0  0  0  0  0  0  0
    4.0090   12.8515    9.3795 H   0  0  0  0  0  0  0  0  0  0  0  0
    1.8821   14.1351    8.0775 H   0  0  0  0  0  0  0  0  0  0  0  0
    2.2220   15.1418    9.5618 H   0  0  0  0  0  0  0  0  0  0  0  0
    4.5188   15.7739    6.3751 H   0  0  0  0  0  0  0  0  0  0  0  0
    4.1002   13.9930    6.4194 H   0  0  0  0  0  0  0  0  0  0  0  0
    2.6040   17.4192    6.4684 H   0  0  0  0  0  0  0  0  0  0  0  0
   -0.9913   16.1872    4.4359 H   0  0  0  0  0  0  0  0  0  0  0  0
   -0.1948   13.8263    4.4472 H   0  0  0  0  0  0  0  0  0  0  0  0
    6.3877   15.6616    7.4110 H   0  0  0  0  0  0  0  0  0  0  0  0
    6.8704   16.0516    9.1384 H   0  0  0  0  0  0  0  0  0  0  0  0
    7.3796   11.4900   11.6403 H   0  0  0  0  0  0  0  0  0  0  0  0
    6.7190   10.2824   10.4861 H   0  0  0  0  0  0  0  0  0  0  0  0
    8.4757   10.6574   10.4861 H   0  0  0  0  0  0  0  0  0  0  0  0
    8.4736   10.1549    7.9664 H   0  0  0  0  0  0  0  0  0  0  0  0
   10.3274   12.1598    4.2865 H   0  0  0  0  0  0  0  0  0  0  0  0
   10.7081   12.5873    1.8682 H   0  0  0  0  0  0  0  0  0  0  0  0
    8.8690   13.4976    0.4507 H   0  0  0  0  0  0  0  0  0  0  0  0
    6.6445   13.9785    1.4669 H   0  0  0  0  0  0  0  0  0  0  0  0
    6.2555   13.5533    3.8827 H   0  0  0  0  0  0  0  0  0  0  0  0
  1  2  1  0
  2  3  1  0
  3  4  1  0
  4  5  1  0
  5  6  2  0
  6  7  1  0
  7  8  1  0
  7  9  2  0
  9 10  1  0
 10 11  2  0
 11 12  1  0
 12 13  1  0
 12 14  1  0
 12 15  1  0
  3 16  1  0
 16 17  2  0
 16 18  1  0
 18 19  1  0
 19 20  1  0
 20 21  2  0
 20 22  1  0
 22 23  1  0
 22 24  1  0
 24 25  2  0
 25 26  1  0
 26 27  2  0
 27 28  1  0
 28 29  2  0
 29 30  1  0
 30 31  2  0
 31 32  1  0
 32 33  2  0
 27 34  1  0
 34 35  2  0
 11  5  1  0
 35 19  1  0
 35 24  1  0
 33 28  1  0
  1 36  1  0
  1 37  1  0
  1 38  1  0
  2 39  1  0
  2 40  1  0
  4 41  1  0
  4 42  1  0
  6 43  1  0
  9 44  1  0
 10 45  1  0
 18 46  1  0
 18 47  1  0
 23 48  1  0
 23 49  1  0
 23 50  1  0
 25 51  1  0
 29 52  1  0
 30 53  1  0
 31 54  1  0
 32 55  1  0
 33 56  1  0
M  END
>  <meeko>  (1) 
{"is_sidechain": [false], "free_energy": -6.401, "intermolecular_energy": -9.395, "internal_energy": -1.701}

$$$$
A15_fine14_out
     RDKit          3D

 56 59  0  0  0  0  0  0  0  0999 V2000
    3.8630   13.8000    9.2480 C   0  0  0  0  0  0  0  0  0  0  0  0
    4.5720   14.9780    8.5970 C   0  0  0  0  0  0  0  0  0  0  0  0
    5.2530   14.6260    7.3470 N   0  0  0  0  0  0  0  0  0  0  0  0
    4.7520   15.2260    6.1070 C   0  0  0  0  0  0  0  0  0  0  0  0
    3.3320   14.8140    5.7550 C   0  0  0  0  0  0  0  0  0  0  0  0
    3.0650   13.4490    5.5360 C   0  0  0  0  0  0  0  0  0  0  0  0
    1.7850   13.0180    5.2080 C   0  0  0  0  0  0  0  0  0  0  0  0
    1.5580   11.7160    4.9970 F   0  0  0  0  0  0  0  0  0  0  0  0
    0.7380   13.9190    5.0980 C   0  0  0  0  0  0  0  0  0  0  0  0
    0.9760   15.2750    5.3260 C   0  0  0  0  0  0  0  0  0  0  0  0
    2.2640   15.7420    5.6610 C   0  0  0  0  0  0  0  0  0  0  0  0
    2.4600   17.2230    5.9090 C   0  0  0  0  0  0  0  0  0  0  0  0
    3.3550   17.7820    5.0500 F   0  0  0  0  0  0  0  0  0  0  0  0
    2.9200   17.5120    7.1590 F   0  0  0  0  0  0  0  0  0  0  0  0
    1.3070   17.9320    5.7700 F   0  0  0  0  0  0  0  0  0  0  0  0
    6.3920   13.8230    7.2700 C   0  0  0  0  0  0  0  0  0  0  0  0
    7.2880   13.8970    8.1190 O   0  0  0  0  0  0  0  0  0  0  0  0
    6.5200   12.8070    6.1280 C   0  0  0  0  0  0  0  0  0  0  0  0
    7.8750   12.4460    5.7960 N   0  0  0  0  0  0  0  0  0  0  0  0
    8.6700   13.0280    4.7950 C   0  0  0  0  0  0  0  0  0  0  0  0
    8.3730   13.9780    4.0900 O   0  0  0  0  0  0  0  0  0  0  0  0
    9.8780   12.3030    4.7770 N   0  0  0  0  0  0  0  0  0  0  0  0
   10.9920   12.5300    3.9040 C   0  0  0  0  0  0  0  0  0  0  0  0
    9.7890   11.2890    5.7320 C   0  0  0  0  0  0  0  0  0  0  0  0
   10.6260   10.2990    6.1360 C   0  0  0  0  0  0  0  0  0  0  0  0
   10.2580    9.4400    7.1120 N   0  0  0  0  0  0  0  0  0  0  0  0
    9.0230    9.5970    7.6690 C   0  0  0  0  0  0  0  0  0  0  0  0
    8.6260    8.6650    8.7450 C   0  0  0  0  0  0  0  0  0  0  0  0
    9.5290    7.7250    9.2780 C   0  0  0  0  0  0  0  0  0  0  0  0
    9.1530    6.8450   10.2980 C   0  0  0  0  0  0  0  0  0  0  0  0
    7.8600    6.8830   10.8100 C   0  0  0  0  0  0  0  0  0  0  0  0
    6.9450    7.8010   10.3050 C   0  0  0  0  0  0  0  0  0  0  0  0
    7.3240    8.6800    9.2860 C   0  0  0  0  0  0  0  0  0  0  0  0
    8.1360   10.5510    7.3140 N   0  0  0  0  0  0  0  0  0  0  0  0
    8.5630   11.3650    6.3550 C   0  0  0  0  0  0  0  0  0  0  0  0
    3.9210   13.8963   10.3422 H   0  0  0  0  0  0  0  0  0  0  0  0
    2.8082   13.7891    8.9362 H   0  0  0  0  0  0  0  0  0  0  0  0
    4.3472   12.8628    8.9362 H   0  0  0  0  0  0  0  0  0  0  0  0
    3.8270   15.7580    8.3811 H   0  0  0  0  0  0  0  0  0  0  0  0
    5.3425   15.3245    9.3015 H   0  0  0  0  0  0  0  0  0  0  0  0
    4.7785   16.3203    6.2161 H   0  0  0  0  0  0  0  0  0  0  0  0
    5.4000   14.8676    5.2936 H   0  0  0  0  0  0  0  0  0  0  0  0
    3.8793   12.7149    5.6256 H   0  0  0  0  0  0  0  0  0  0  0  0
   -0.2707   13.5689    4.8336 H   0  0  0  0  0  0  0  0  0  0  0  0
    0.1454   15.9914    5.2431 H   0  0  0  0  0  0  0  0  0  0  0  0
    5.9830   11.8926    6.4204 H   0  0  0  0  0  0  0  0  0  0  0  0
    6.0972   13.2880    5.2336 H   0  0  0  0  0  0  0  0  0  0  0  0
   11.8959   12.7142    4.5032 H   0  0  0  0  0  0  0  0  0  0  0  0
   11.1468   11.6449    3.2694 H   0  0  0  0  0  0  0  0  0  0  0  0
   10.7882   13.4051    3.2694 H   0  0  0  0  0  0  0  0  0  0  0  0
   11.6140   10.1952    5.6638 H   0  0  0  0  0  0  0  0  0  0  0  0
   10.5546    7.6818    8.8827 H   0  0  0  0  0  0  0  0  0  0  0  0
    9.8804    6.1221   10.6958 H   0  0  0  0  0  0  0  0  0  0  0  0
    7.5625    6.1900   11.6108 H   0  0  0  0  0  0  0  0  0  0  0  0
    5.9220    7.8354   10.7079 H   0  0  0  0  0  0  0  0  0  0  0  0
    6.5891    9.4003    8.8972 H   0  0  0  0  0  0  0  0  0  0  0  0
  1  2  1  0
  2  3  1  0
  3  4  1  0
  4  5  1  0
  5  6  2  0
  6  7  1  0
  7  8  1  0
  7  9  2  0
  9 10  1  0
 10 11  2  0
 11 12  1  0
 12 13  1  0
 12 14  1  0
 12 15  1  0
  3 16  1  0
 16 17  2  0
 16 18  1  0
 18 19  1  0
 19 20  1  0
 20 21  2  0
 20 22  1  0
 22 23  1  0
 22 24  1  0
 24 25  2  0
 25 26  1  0
 26 27  2  0
 27 28  1  0
 28 29  2  0
 29 30  1  0
 30 31  2  0
 31 32  1  0
 32 33  2  0
 27 34  1  0
 34 35  2  0
 11  5  1  0
 35 19  1  0
 35 24  1  0
 33 28  1  0
  1 36  1  0
  1 37  1  0
  1 38  1  0
  2 39  1  0
  2 40  1  0
  4 41  1  0
  4 42  1  0
  6 43  1  0
  9 44  1  0
 10 45  1  0
 18 46  1  0
 18 47  1  0
 23 48  1  0
 23 49  1  0
 23 50  1  0
 25 51  1  0
 29 52  1  0
 30 53  1  0
 31 54  1  0
 32 55  1  0
 33 56  1  0
M  END
>  <meeko>  (2) 
{"is_sidechain": [false], "free_energy": -6.285, "intermolecular_energy": -9.386, "internal_energy": -1.539}

$$$$
A15_fine14_out
     RDKit          3D

 56 59  0  0  0  0  0  0  0  0999 V2000
    3.9240   17.6960    5.2920 C   0  0  0  0  0  0  0  0  0  0  0  0
    3.3720   16.8870    6.4550 C   0  0  0  0  0  0  0  0  0  0  0  0
    3.3700   15.4410    6.2070 N   0  0  0  0  0  0  0  0  0  0  0  0
    2.2390   14.8820    5.4600 C   0  0  0  0  0  0  0  0  0  0  0  0
    0.9210   14.9310    6.2140 C   0  0  0  0  0  0  0  0  0  0  0  0
    0.1690   16.1210    6.1750 C   0  0  0  0  0  0  0  0  0  0  0  0
   -1.0420   16.2210    6.8500 C   0  0  0  0  0  0  0  0  0  0  0  0
   -1.7330   17.3670    6.8040 F   0  0  0  0  0  0  0  0  0  0  0  0
   -1.5450   15.1500    7.5700 C   0  0  0  0  0  0  0  0  0  0  0  0
   -0.8260   13.9550    7.6110 C   0  0  0  0  0  0  0  0  0  0  0  0
    0.4060   13.8230    6.9350 C   0  0  0  0  0  0  0  0  0  0  0  0
    1.1360   12.4980    7.0040 C   0  0  0  0  0  0  0  0  0  0  0  0
    2.2080   12.5360    7.8420 F   0  0  0  0  0  0  0  0  0  0  0  0
    1.6230   12.0790    5.8030 F   0  0  0  0  0  0  0  0  0  0  0  0
    0.3420   11.4880    7.4510 F   0  0  0  0  0  0  0  0  0  0  0  0
    4.4080   14.5800    6.5640 C   0  0  0  0  0  0  0  0  0  0  0  0
    4.6280   13.5420    5.9300 O   0  0  0  0  0  0  0  0  0  0  0  0
    5.3140   14.9440    7.7470 C   0  0  0  0  0  0  0  0  0  0  0  0
    5.0570   14.1970    8.9520 N   0  0  0  0  0  0  0  0  0  0  0  0
    5.8300   13.1370    9.4550 C   0  0  0  0  0  0  0  0  0  0  0  0
    6.8790   12.7190    8.9950 O   0  0  0  0  0  0  0  0  0  0  0  0
    5.1540   12.6630   10.5970 N   0  0  0  0  0  0  0  0  0  0  0  0
    5.5640   11.5740   11.4350 C   0  0  0  0  0  0  0  0  0  0  0  0
    3.9870   13.4110   10.7520 C   0  0  0  0  0  0  0  0  0  0  0  0
    2.9670   13.3910   11.6480 C   0  0  0  0  0  0  0  0  0  0  0  0
    1.9380   14.2620   11.5440 N   0  0  0  0  0  0  0  0  0  0  0  0
    1.9600   15.1530   10.5110 C   0  0  0  0  0  0  0  0  0  0  0  0
    0.8420   16.1130   10.4040 C   0  0  0  0  0  0  0  0  0  0  0  0
   -0.4160   15.8490   10.9790 C   0  0  0  0  0  0  0  0  0  0  0  0
   -1.4730   16.7600   10.8790 C   0  0  0  0  0  0  0  0  0  0  0  0
   -1.2960   17.9620   10.2000 C   0  0  0  0  0  0  0  0  0  0  0  0
   -0.0650   18.2520    9.6220 C   0  0  0  0  0  0  0  0  0  0  0  0
    0.9900   17.3390    9.7230 C   0  0  0  0  0  0  0  0  0  0  0  0
    2.9340   15.2270    9.5800 N   0  0  0  0  0  0  0  0  0  0  0  0
    3.9160   14.3480    9.7450 C   0  0  0  0  0  0  0  0  0  0  0  0
    4.5042   18.5464    5.6796 H   0  0  0  0  0  0  0  0  0  0  0  0
    4.5755   17.0572    4.6775 H   0  0  0  0  0  0  0  0  0  0  0  0
    3.0917   18.0697    4.6775 H   0  0  0  0  0  0  0  0  0  0  0  0
    3.9883   17.0879    7.3437 H   0  0  0  0  0  0  0  0  0  0  0  0
    2.3256   17.1944    6.5980 H   0  0  0  0  0  0  0  0  0  0  0  0
    2.1253   15.4513    4.5257 H   0  0  0  0  0  0  0  0  0  0  0  0
    2.4664   13.8206    5.2817 H   0  0  0  0  0  0  0  0  0  0  0  0
    0.5447   16.9823    5.6031 H   0  0  0  0  0  0  0  0  0  0  0  0
   -2.5022   15.2407    8.1044 H   0  0  0  0  0  0  0  0  0  0  0  0
   -1.2257   13.1021    8.1792 H   0  0  0  0  0  0  0  0  0  0  0  0
    6.3572   14.7644    7.4480 H   0  0  0  0  0  0  0  0  0  0  0  0
    5.1082   15.9982    7.9841 H   0  0  0  0  0  0  0  0  0  0  0  0
    5.4553   11.8627   12.4908 H   0  0  0  0  0  0  0  0  0  0  0  0
    4.9351   10.6955   11.2285 H   0  0  0  0  0  0  0  0  0  0  0  0
    6.6162   11.3284   11.2285 H   0  0  0  0  0  0  0  0  0  0  0  0
    2.9779   12.6578   12.4679 H   0  0  0  0  0  0  0  0  0  0  0  0
   -0.5713   14.9038   11.5198 H   0  0  0  0  0  0  0  0  0  0  0  0
   -2.4451   16.5261   11.3375 H   0  0  0  0  0  0  0  0  0  0  0  0
   -2.1262   18.6793   10.1210 H   0  0  0  0  0  0  0  0  0  0  0  0
    0.0794   19.2008    9.0845 H   0  0  0  0  0  0  0  0  0  0  0  0
    1.9577   17.5831    9.2604 H   0  0  0  0  0  0  0  0  0  0  0  0
  1  2  1  0
  2  3  1  0
  3  4  1  0
  4  5  1  0
  5  6  2  0
  6  7  1  0
  7  8  1  0
  7  9  2  0
  9 10  1  0
 10 11  2  0
 11 12  1  0
 12 13  1  0
 12 14  1  0
 12 15  1  0
  3 16  1  0
 16 17  2  0
 16 18  1  0
 18 19  1  0
 19 20  1  0
 20 21  2  0
 20 22  1  0
 22 23  1  0
 22 24  1  0
 24 25  2  0
 25 26  1  0
 26 27  2  0
 27 28  1  0
 28 29  2  0
 29 30  1  0
 30 31  2  0
 31 32  1  0
 32 33  2  0
 27 34  1  0
 34 35  2  0
 11  5  1  0
 35 19  1  0
 35 24  1  0
 33 28  1  0
  1 36  1  0
  1 37  1  0
  1 38  1  0
  2 39  1  0
  2 40  1  0
  4 41  1  0
  4 42  1  0
  6 43  1  0
  9 44  1  0
 10 45  1  0
 18 46  1  0
 18 47  1  0
 23 48  1  0
 23 49  1  0
 23 50  1  0
 25 51  1  0
 29 52  1  0
 30 53  1  0
 31 54  1  0
 32 55  1  0
 33 56  1  0
M  END
>  <meeko>  (3) 
{"is_sidechain": [false], "free_energy": -6.256, "intermolecular_energy": -7.433, "internal_energy": -3.45}

$$$$
A15_fine14_out
     RDKit          3D

 56 59  0  0  0  0  0  0  0  0999 V2000
    6.2470   16.8950    4.3560 C   0  0  0  0  0  0  0  0  0  0  0  0
    6.2560   15.3910    4.5840 C   0  0  0  0  0  0  0  0  0  0  0  0
    5.8510   15.0070    5.9390 N   0  0  0  0  0  0  0  0  0  0  0  0
    4.6710   15.6650    6.5080 C   0  0  0  0  0  0  0  0  0  0  0  0
    3.3530   15.1460    5.9580 C   0  0  0  0  0  0  0  0  0  0  0  0
    3.2140   13.7600    5.7470 C   0  0  0  0  0  0  0  0  0  0  0  0
    2.0320   13.2320    5.2420 C   0  0  0  0  0  0  0  0  0  0  0  0
    1.9280   11.9130    5.0420 F   0  0  0  0  0  0  0  0  0  0  0  0
    0.9560   14.0540    4.9440 C   0  0  0  0  0  0  0  0  0  0  0  0
    1.0660   15.4280    5.1590 C   0  0  0  0  0  0  0  0  0  0  0  0
    2.2530   15.9930    5.6710 C   0  0  0  0  0  0  0  0  0  0  0  0
    2.3090   17.4890    5.8970 C   0  0  0  0  0  0  0  0  0  0  0  0
    3.1010   18.1240    4.9900 F   0  0  0  0  0  0  0  0  0  0  0  0
    2.7960   17.8400    7.1200 F   0  0  0  0  0  0  0  0  0  0  0  0
    1.0850   18.0770    5.8080 F   0  0  0  0  0  0  0  0  0  0  0  0
    6.4640   14.0030    6.6890 C   0  0  0  0  0  0  0  0  0  0  0  0
    6.5810   12.8530    6.2500 O   0  0  0  0  0  0  0  0  0  0  0  0
    7.0320   14.3390    8.0740 C   0  0  0  0  0  0  0  0  0  0  0  0
    6.5960   13.4620    9.1310 N   0  0  0  0  0  0  0  0  0  0  0  0
    7.3880   12.5260    9.8160 C   0  0  0  0  0  0  0  0  0  0  0  0
    8.5870   12.3490    9.6800 O   0  0  0  0  0  0  0  0  0  0  0  0
    6.5240   11.8440   10.6950 N   0  0  0  0  0  0  0  0  0  0  0  0
    6.8860   10.7850   11.5920 C   0  0  0  0  0  0  0  0  0  0  0  0
    5.2350   12.3480   10.5130 C   0  0  0  0  0  0  0  0  0  0  0  0
    4.0270   12.0660   11.0660 C   0  0  0  0  0  0  0  0  0  0  0  0
    2.9190   12.7370   10.6800 N   0  0  0  0  0  0  0  0  0  0  0  0
    3.0550   13.6970    9.7210 C   0  0  0  0  0  0  0  0  0  0  0  0
    1.8460   14.4400    9.3090 C   0  0  0  0  0  0  0  0  0  0  0  0
    1.7150   15.8230    9.5370 C   0  0  0  0  0  0  0  0  0  0  0  0
    0.5700   16.5250    9.1450 C   0  0  0  0  0  0  0  0  0  0  0  0
   -0.4750   15.8570    8.5140 C   0  0  0  0  0  0  0  0  0  0  0  0
   -0.3760   14.4910    8.2750 C   0  0  0  0  0  0  0  0  0  0  0  0
    0.7700   13.7920    8.6670 C   0  0  0  0  0  0  0  0  0  0  0  0
    4.2200   14.0270    9.1230 N   0  0  0  0  0  0  0  0  0  0  0  0
    5.2700   13.3340    9.5530 C   0  0  0  0  0  0  0  0  0  0  0  0
    6.2439   17.4130    5.3264 H   0  0  0  0  0  0  0  0  0  0  0  0
    7.1434   17.1852    3.7884 H   0  0  0  0  0  0  0  0  0  0  0  0
    5.3472   17.1744    3.7884 H   0  0  0  0  0  0  0  0  0  0  0  0
    5.5634   14.9252    3.8675 H   0  0  0  0  0  0  0  0  0  0  0  0
    7.2913   15.0467    4.4439 H   0  0  0  0  0  0  0  0  0  0  0  0
    4.6780   15.5082    7.5967 H   0  0  0  0  0  0  0  0  0  0  0  0
    4.7350   16.7286    6.2347 H   0  0  0  0  0  0  0  0  0  0  0  0
    4.0514   13.0876    5.9849 H   0  0  0  0  0  0  0  0  0  0  0  0
    0.0252   13.6272    4.5422 H   0  0  0  0  0  0  0  0  0  0  0  0
    0.2128   16.0819    4.9254 H   0  0  0  0  0  0  0  0  0  0  0  0
    8.1293   14.2875    8.0164 H   0  0  0  0  0  0  0  0  0  0  0  0
    6.6594   15.3423    8.3283 H   0  0  0  0  0  0  0  0  0  0  0  0
    6.7687   11.1280   12.6306 H   0  0  0  0  0  0  0  0  0  0  0  0
    6.2336    9.9169   11.4167 H   0  0  0  0  0  0  0  0  0  0  0  0
    7.9333   10.4979   11.4167 H   0  0  0  0  0  0  0  0  0  0  0  0
    3.9496   11.2838   11.8356 H   0  0  0  0  0  0  0  0  0  0  0  0
    2.5325   16.3647   10.0353 H   0  0  0  0  0  0  0  0  0  0  0  0
    0.4958   17.6058    9.3357 H   0  0  0  0  0  0  0  0  0  0  0  0
   -1.3759   16.4076    8.2055 H   0  0  0  0  0  0  0  0  0  0  0  0
   -1.2002   13.9594    7.7769 H   0  0  0  0  0  0  0  0  0  0  0  0
    0.8339   12.7116    8.4701 H   0  0  0  0  0  0  0  0  0  0  0  0
  1  2  1  0
  2  3  1  0
  3  4  1  0
  4  5  1  0
  5  6  2  0
  6  7  1  0
  7  8  1  0
  7  9  2  0
  9 10  1  0
 10 11  2  0
 11 12  1  0
 12 13  1  0
 12 14  1  0
 12 15  1  0
  3 16  1  0
 16 17  2  0
 16 18  1  0
 18 19  1  0
 19 20  1  0
 20 21  2  0
 20 22  1  0
 22 23  1  0
 22 24  1  0
 24 25  2  0
 25 26  1  0
 26 27  2  0
 27 28  1  0
 28 29  2  0
 29 30  1  0
 30 31  2  0
 31 32  1  0
 32 33  2  0
 27 34  1  0
 34 35  2  0
 11  5  1  0
 35 19  1  0
 35 24  1  0
 33 28  1  0
  1 36  1  0
  1 37  1  0
  1 38  1  0
  2 39  1  0
  2 40  1  0
  4 41  1  0
  4 42  1  0
  6 43  1  0
  9 44  1  0
 10 45  1  0
 18 46  1  0
 18 47  1  0
 23 48  1  0
 23 49  1  0
 23 50  1  0
 25 51  1  0
 29 52  1  0
 30 53  1  0
 31 54  1  0
 32 55  1  0
 33 56  1  0
M  END
>  <meeko>  (4) 
{"is_sidechain": [false], "free_energy": -6.25, "intermolecular_energy": -7.513, "internal_energy": -3.36}

$$$$
A15_fine14_out
     RDKit          3D

 56 59  0  0  0  0  0  0  0  0999 V2000
    4.6430   15.7500    6.0960 C   0  0  0  0  0  0  0  0  0  0  0  0
    4.2640   15.8310    7.5670 C   0  0  0  0  0  0  0  0  0  0  0  0
    4.2090   14.5210    8.2240 N   0  0  0  0  0  0  0  0  0  0  0  0
    3.2350   13.5480    7.7190 C   0  0  0  0  0  0  0  0  0  0  0  0
    1.7910   14.0050    7.8400 C   0  0  0  0  0  0  0  0  0  0  0  0
    1.3510   14.5200    9.0760 C   0  0  0  0  0  0  0  0  0  0  0  0
    0.0400   14.9480    9.2420 C   0  0  0  0  0  0  0  0  0  0  0  0
   -0.3550   15.4250   10.4290 F   0  0  0  0  0  0  0  0  0  0  0  0
   -0.8660   14.8900    8.1950 C   0  0  0  0  0  0  0  0  0  0  0  0
   -0.4490   14.3990    6.9580 C   0  0  0  0  0  0  0  0  0  0  0  0
    0.8760   13.9570    6.7580 C   0  0  0  0  0  0  0  0  0  0  0  0
    1.2760   13.4460    5.3900 C   0  0  0  0  0  0  0  0  0  0  0  0
    1.6400   12.1340    5.4080 F   0  0  0  0  0  0  0  0  0  0  0  0
    2.3290   14.1130    4.8420 F   0  0  0  0  0  0  0  0  0  0  0  0
    0.2670   13.5450    4.4810 F   0  0  0  0  0  0  0  0  0  0  0  0
    5.0730   14.1130    9.2410 C   0  0  0  0  0  0  0  0  0  0  0  0
    4.6420   13.6680   10.3100 O   0  0  0  0  0  0  0  0  0  0  0  0
    6.5880   14.1890    9.0150 C   0  0  0  0  0  0  0  0  0  0  0  0
    7.1900   12.9590    8.5670 N   0  0  0  0  0  0  0  0  0  0  0  0
    7.5910   11.8850    9.3780 C   0  0  0  0  0  0  0  0  0  0  0  0
    7.4350   11.7850   10.5840 O   0  0  0  0  0  0  0  0  0  0  0  0
    8.1990   10.9460    8.5200 N   0  0  0  0  0  0  0  0  0  0  0  0
    8.7760    9.6910    8.9060 C   0  0  0  0  0  0  0  0  0  0  0  0
    8.1840   11.4690    7.2270 C   0  0  0  0  0  0  0  0  0  0  0  0
    8.6320   11.0220    6.0250 C   0  0  0  0  0  0  0  0  0  0  0  0
    8.4740   11.7670    4.9090 N   0  0  0  0  0  0  0  0  0  0  0  0
    7.8560   12.9770    5.0320 C   0  0  0  0  0  0  0  0  0  0  0  0
    7.6710   13.7860    3.8090 C   0  0  0  0  0  0  0  0  0  0  0  0
    7.6730   13.2000    2.5290 C   0  0  0  0  0  0  0  0  0  0  0  0
    7.4960   13.9660    1.3720 C   0  0  0  0  0  0  0  0  0  0  0  0
    7.3130   15.3430    1.4690 C   0  0  0  0  0  0  0  0  0  0  0  0
    7.3050   15.9510    2.7200 C   0  0  0  0  0  0  0  0  0  0  0  0
    7.4820   15.1820    3.8740 C   0  0  0  0  0  0  0  0  0  0  0  0
    7.3920   13.4890    6.1920 N   0  0  0  0  0  0  0  0  0  0  0  0
    7.5740   12.7030    7.2470 C   0  0  0  0  0  0  0  0  0  0  0  0
    5.7151   15.5209    6.0057 H   0  0  0  0  0  0  0  0  0  0  0  0
    4.0563   14.9570    5.6093 H   0  0  0  0  0  0  0  0  0  0  0  0
    4.4317   16.7136    5.6093 H   0  0  0  0  0  0  0  0  0  0  0  0
    5.0096   16.4511    8.0862 H   0  0  0  0  0  0  0  0  0  0  0  0
    3.2548   16.2653    7.6204 H   0  0  0  0  0  0  0  0  0  0  0  0
    3.4513   13.3603    6.6569 H   0  0  0  0  0  0  0  0  0  0  0  0
    3.3370   12.6433    8.3363 H   0  0  0  0  0  0  0  0  0  0  0  0
    2.0543   14.5838    9.9194 H   0  0  0  0  0  0  0  0  0  0  0  0
   -1.9031   15.2276    8.3380 H   0  0  0  0  0  0  0  0  0  0  0  0
   -1.1652   14.3556    6.1242 H   0  0  0  0  0  0  0  0  0  0  0  0
    6.7836   14.9625    8.2577 H   0  0  0  0  0  0  0  0  0  0  0  0
    7.0379   14.4185    9.9922 H   0  0  0  0  0  0  0  0  0  0  0  0
    8.8069    9.6238   10.0035 H   0  0  0  0  0  0  0  0  0  0  0  0
    8.1658    8.8682    8.5053 H   0  0  0  0  0  0  0  0  0  0  0  0
    9.7978    9.6185    8.5053 H   0  0  0  0  0  0  0  0  0  0  0  0
    9.1288   10.0428    5.9596 H   0  0  0  0  0  0  0  0  0  0  0  0
    7.8172   12.1134    2.4364 H   0  0  0  0  0  0  0  0  0  0  0  0
    7.5014   13.4803    0.3850 H   0  0  0  0  0  0  0  0  0  0  0  0
    7.1754   15.9473    0.5602 H   0  0  0  0  0  0  0  0  0  0  0  0
    7.1592   17.0383    2.8014 H   0  0  0  0  0  0  0  0  0  0  0  0
    7.4736   15.6776    4.8560 H   0  0  0  0  0  0  0  0  0  0  0  0
  1  2  1  0
  2  3  1  0
  3  4  1  0
  4  5  1  0
  5  6  2  0
  6  7  1  0
  7  8  1  0
  7  9  2  0
  9 10  1  0
 10 11  2  0
 11 12  1  0
 12 13  1  0
 12 14  1  0
 12 15  1  0
  3 16  1  0
 16 17  2  0
 16 18  1  0
 18 19  1  0
 19 20  1  0
 20 21  2  0
 20 22  1  0
 22 23  1  0
 22 24  1  0
 24 25  2  0
 25 26  1  0
 26 27  2  0
 27 28  1  0
 28 29  2  0
 29 30  1  0
 30 31  2  0
 31 32  1  0
 32 33  2  0
 27 34  1  0
 34 35  2  0
 11  5  1  0
 35 19  1  0
 35 24  1  0
 33 28  1  0
  1 36  1  0
  1 37  1  0
  1 38  1  0
  2 39  1  0
  2 40  1  0
  4 41  1  0
  4 42  1  0
  6 43  1  0
  9 44  1  0
 10 45  1  0
 18 46  1  0
 18 47  1  0
 23 48  1  0
 23 49  1  0
 23 50  1  0
 25 51  1  0
 29 52  1  0
 30 53  1  0
 31 54  1  0
 32 55  1  0
 33 56  1  0
M  END
>  <meeko>  (5) 
{"is_sidechain": [false], "free_energy": -6.249, "intermolecular_energy": -8.925, "internal_energy": -1.947}

$$$$
A15_fine14_out
     RDKit          3D

 56 59  0  0  0  0  0  0  0  0999 V2000
    5.6660   13.1900    5.2180 C   0  0  0  0  0  0  0  0  0  0  0  0
    5.8190   14.2790    6.2700 C   0  0  0  0  0  0  0  0  0  0  0  0
    5.0730   14.0030    7.5020 N   0  0  0  0  0  0  0  0  0  0  0  0
    3.6390   13.7250    7.3810 C   0  0  0  0  0  0  0  0  0  0  0  0
    2.8530   14.8380    6.7080 C   0  0  0  0  0  0  0  0  0  0  0  0
    3.1850   16.1730    7.0100 C   0  0  0  0  0  0  0  0  0  0  0  0
    2.4960   17.2280    6.4250 C   0  0  0  0  0  0  0  0  0  0  0  0
    2.8250   18.4870    6.7360 F   0  0  0  0  0  0  0  0  0  0  0  0
    1.4710   16.9940    5.5230 C   0  0  0  0  0  0  0  0  0  0  0  0
    1.1340   15.6810    5.1960 C   0  0  0  0  0  0  0  0  0  0  0  0
    1.8160   14.5890    5.7730 C   0  0  0  0  0  0  0  0  0  0  0  0
    1.4160   13.1850    5.3700 C   0  0  0  0  0  0  0  0  0  0  0  0
    0.8800   12.4780    6.4040 F   0  0  0  0  0  0  0  0  0  0  0  0
    2.4520   12.4310    4.9070 F   0  0  0  0  0  0  0  0  0  0  0  0
    0.4820   13.1720    4.3800 F   0  0  0  0  0  0  0  0  0  0  0  0
    5.6520   13.9100    8.7680 C   0  0  0  0  0  0  0  0  0  0  0  0
    6.3210   12.9240    9.0980 O   0  0  0  0  0  0  0  0  0  0  0  0
    5.4820   15.0680    9.7600 C   0  0  0  0  0  0  0  0  0  0  0  0
    4.7060   14.7460   10.9300 N   0  0  0  0  0  0  0  0  0  0  0  0
    5.1990   14.2290   12.1400 C   0  0  0  0  0  0  0  0  0  0  0  0
    6.3690   14.0310   12.4240 O   0  0  0  0  0  0  0  0  0  0  0  0
    4.0760   13.9950   12.9570 N   0  0  0  0  0  0  0  0  0  0  0  0
    4.0900   13.4540   14.2850 C   0  0  0  0  0  0  0  0  0  0  0  0
    2.9340   14.3410   12.2340 C   0  0  0  0  0  0  0  0  0  0  0  0
    1.6030   14.3120   12.5040 C   0  0  0  0  0  0  0  0  0  0  0  0
    0.7030   14.7210   11.5820 N   0  0  0  0  0  0  0  0  0  0  0  0
    1.1750   15.1550   10.3780 C   0  0  0  0  0  0  0  0  0  0  0  0
    0.1920   15.6140    9.3750 C   0  0  0  0  0  0  0  0  0  0  0  0
   -0.1010   16.9800    9.1990 C   0  0  0  0  0  0  0  0  0  0  0  0
   -1.0310   17.4130    8.2470 C   0  0  0  0  0  0  0  0  0  0  0  0
   -1.6930   16.4870    7.4470 C   0  0  0  0  0  0  0  0  0  0  0  0
   -1.4250   15.1300    7.5980 C   0  0  0  0  0  0  0  0  0  0  0  0
   -0.4950   14.7000    8.5490 C   0  0  0  0  0  0  0  0  0  0  0  0
    2.4800   15.2050   10.0370 N   0  0  0  0  0  0  0  0  0  0  0  0
    3.3100   14.7960   10.9900 C   0  0  0  0  0  0  0  0  0  0  0  0
    5.5294   12.2177    5.7139 H   0  0  0  0  0  0  0  0  0  0  0  0
    4.7896   13.4075    4.5898 H   0  0  0  0  0  0  0  0  0  0  0  0
    6.5684   13.1576    4.5898 H   0  0  0  0  0  0  0  0  0  0  0  0
    6.8856   14.3744    6.5214 H   0  0  0  0  0  0  0  0  0  0  0  0
    5.4101   15.2060    5.8418 H   0  0  0  0  0  0  0  0  0  0  0  0
    3.5126   12.8054    6.7908 H   0  0  0  0  0  0  0  0  0  0  0  0
    3.2444   13.6270    8.4031 H   0  0  0  0  0  0  0  0  0  0  0  0
    4.0002   16.3830    7.7181 H   0  0  0  0  0  0  0  0  0  0  0  0
    0.9280   17.8360    5.0690 H   0  0  0  0  0  0  0  0  0  0  0  0
    0.3233   15.4936    4.4765 H   0  0  0  0  0  0  0  0  0  0  0  0
    6.4818   15.3878   10.0887 H   0  0  0  0  0  0  0  0  0  0  0  0
    4.9303   15.8566    9.2272 H   0  0  0  0  0  0  0  0  0  0  0  0
    4.0687   14.2758   15.0159 H   0  0  0  0  0  0  0  0  0  0  0  0
    3.2082   12.8124   14.4289 H   0  0  0  0  0  0  0  0  0  0  0  0
    5.0038   12.8589   14.4289 H   0  0  0  0  0  0  0  0  0  0  0  0
    1.2539   13.9520   13.4830 H   0  0  0  0  0  0  0  0  0  0  0  0
    0.4133   17.7244    9.8246 H   0  0  0  0  0  0  0  0  0  0  0  0
   -1.2389   18.4869    8.1311 H   0  0  0  0  0  0  0  0  0  0  0  0
   -2.4247   16.8260    6.6988 H   0  0  0  0  0  0  0  0  0  0  0  0
   -1.9459   14.3941    6.9678 H   0  0  0  0  0  0  0  0  0  0  0  0
   -0.2943   13.6237    8.6557 H   0  0  0  0  0  0  0  0  0  0  0  0
  1  2  1  0
  2  3  1  0
  3  4  1  0
  4  5  1  0
  5  6  2  0
  6  7  1  0
  7  8  1  0
  7  9  2  0
  9 10  1  0
 10 11  2  0
 11 12  1  0
 12 13  1  0
 12 14  1  0
 12 15  1  0
  3 16  1  0
 16 17  2  0
 16 18  1  0
 18 19  1  0
 19 20  1  0
 20 21  2  0
 20 22  1  0
 22 23  1  0
 22 24  1  0
 24 25  2  0
 25 26  1  0
 26 27  2  0
 27 28  1  0
 28 29  2  0
 29 30  1  0
 30 31  2  0
 31 32  1  0
 32 33  2  0
 27 34  1  0
 34 35  2  0
 11  5  1  0
 35 19  1  0
 35 24  1  0
 33 28  1  0
  1 36  1  0
  1 37  1  0
  1 38  1  0
  2 39  1  0
  2 40  1  0
  4 41  1  0
  4 42  1  0
  6 43  1  0
  9 44  1  0
 10 45  1  0
 18 46  1  0
 18 47  1  0
 23 48  1  0
 23 49  1  0
 23 50  1  0
 25 51  1  0
 29 52  1  0
 30 53  1  0
 31 54  1  0
 32 55  1  0
 33 56  1  0
M  END
>  <meeko>  (6) 
{"is_sidechain": [false], "free_energy": -6.213, "intermolecular_energy": -7.493, "internal_energy": -3.325}

$$$$
A15_fine14_out
     RDKit          3D

 56 59  0  0  0  0  0  0  0  0999 V2000
    0.3630   19.0380    7.5520 C   0  0  0  0  0  0  0  0  0  0  0  0
    0.8780   17.7330    8.1400 C   0  0  0  0  0  0  0  0  0  0  0  0
   -0.1830   16.8930    8.7050 N   0  0  0  0  0  0  0  0  0  0  0  0
   -0.9760   16.0820    7.7750 C   0  0  0  0  0  0  0  0  0  0  0  0
   -0.1560   15.0820    6.9790 C   0  0  0  0  0  0  0  0  0  0  0  0
    0.3130   13.9260    7.6330 C   0  0  0  0  0  0  0  0  0  0  0  0
    1.0700   12.9800    6.9530 C   0  0  0  0  0  0  0  0  0  0  0  0
    1.5100   11.8940    7.6000 F   0  0  0  0  0  0  0  0  0  0  0  0
    1.3770   13.1460    5.6120 C   0  0  0  0  0  0  0  0  0  0  0  0
    0.9110   14.2750    4.9380 C   0  0  0  0  0  0  0  0  0  0  0  0
    0.1390   15.2520    5.6020 C   0  0  0  0  0  0  0  0  0  0  0  0
   -0.3510   16.4510    4.8170 C   0  0  0  0  0  0  0  0  0  0  0  0
    0.6160   17.3940    4.6480 F   0  0  0  0  0  0  0  0  0  0  0  0
   -1.3970   17.0980    5.4020 F   0  0  0  0  0  0  0  0  0  0  0  0
   -0.7770   16.1180    3.5680 F   0  0  0  0  0  0  0  0  0  0  0  0
   -0.4330   16.7540   10.0700 C   0  0  0  0  0  0  0  0  0  0  0  0
   -1.5750   16.5440   10.4960 O   0  0  0  0  0  0  0  0  0  0  0  0
    0.7360   16.8300   11.0610 C   0  0  0  0  0  0  0  0  0  0  0  0
    1.2610   15.5520   11.4680 N   0  0  0  0  0  0  0  0  0  0  0  0
    0.9720   14.8770   12.6660 C   0  0  0  0  0  0  0  0  0  0  0  0
    0.1790   15.2250   13.5250 O   0  0  0  0  0  0  0  0  0  0  0  0
    1.7730   13.7170   12.6690 N   0  0  0  0  0  0  0  0  0  0  0  0
    1.8260   12.7250   13.7020 C   0  0  0  0  0  0  0  0  0  0  0  0
    2.5440   13.7200   11.5060 C   0  0  0  0  0  0  0  0  0  0  0  0
    3.4820   12.8800   10.9960 C   0  0  0  0  0  0  0  0  0  0  0  0
    4.0780   13.1490    9.8130 N   0  0  0  0  0  0  0  0  0  0  0  0
    3.7100   14.2880    9.1570 C   0  0  0  0  0  0  0  0  0  0  0  0
    4.3530   14.5740    7.8580 C   0  0  0  0  0  0  0  0  0  0  0  0
    3.8300   15.5360    6.9710 C   0  0  0  0  0  0  0  0  0  0  0  0
    4.4410   15.8080    5.7420 C   0  0  0  0  0  0  0  0  0  0  0  0
    5.5930   15.1220    5.3690 C   0  0  0  0  0  0  0  0  0  0  0  0
    6.1340   14.1660    6.2240 C   0  0  0  0  0  0  0  0  0  0  0  0
    5.5210   13.8970    7.4510 C   0  0  0  0  0  0  0  0  0  0  0  0
    2.7930   15.1710    9.6050 N   0  0  0  0  0  0  0  0  0  0  0  0
    2.2420   14.8430   10.7690 C   0  0  0  0  0  0  0  0  0  0  0  0
    0.0917   19.7254    8.3667 H   0  0  0  0  0  0  0  0  0  0  0  0
    1.1479   19.4958    6.9320 H   0  0  0  0  0  0  0  0  0  0  0  0
   -0.5230   18.8364    6.9320 H   0  0  0  0  0  0  0  0  0  0  0  0
    1.3847   17.1673    7.3442 H   0  0  0  0  0  0  0  0  0  0  0  0
    1.5606   17.9931    8.9625 H   0  0  0  0  0  0  0  0  0  0  0  0
   -1.7303   15.5289    8.3539 H   0  0  0  0  0  0  0  0  0  0  0  0
   -1.4263   16.7757    7.0497 H   0  0  0  0  0  0  0  0  0  0  0  0
    0.0768   13.7702    8.6960 H   0  0  0  0  0  0  0  0  0  0  0  0
    1.9824   12.3946    5.0839 H   0  0  0  0  0  0  0  0  0  0  0  0
    1.1491   14.4057    3.8721 H   0  0  0  0  0  0  0  0  0  0  0  0
    1.5494   17.4005   10.5890 H   0  0  0  0  0  0  0  0  0  0  0  0
    0.3436   17.3096   11.9698 H   0  0  0  0  0  0  0  0  0  0  0  0
    1.7997   13.2177   14.6852 H   0  0  0  0  0  0  0  0  0  0  0  0
    0.9626   12.0501   13.6069 H   0  0  0  0  0  0  0  0  0  0  0  0
    2.7564   12.1459   13.6069 H   0  0  0  0  0  0  0  0  0  0  0  0
    3.7593   11.9718   11.5513 H   0  0  0  0  0  0  0  0  0  0  0  0
    2.9197   16.0862    7.2515 H   0  0  0  0  0  0  0  0  0  0  0  0
    4.0103   16.5649    5.0699 H   0  0  0  0  0  0  0  0  0  0  0  0
    6.0739   15.3343    4.4028 H   0  0  0  0  0  0  0  0  0  0  0  0
    7.0448   13.6217    5.9337 H   0  0  0  0  0  0  0  0  0  0  0  0
    5.9606   13.1385    8.1155 H   0  0  0  0  0  0  0  0  0  0  0  0
  1  2  1  0
  2  3  1  0
  3  4  1  0
  4  5  1  0
  5  6  2  0
  6  7  1  0
  7  8  1  0
  7  9  2  0
  9 10  1  0
 10 11  2  0
 11 12  1  0
 12 13  1  0
 12 14  1  0
 12 15  1  0
  3 16  1  0
 16 17  2  0
 16 18  1  0
 18 19  1  0
 19 20  1  0
 20 21  2  0
 20 22  1  0
 22 23  1  0
 22 24  1  0
 24 25  2  0
 25 26  1  0
 26 27  2  0
 27 28  1  0
 28 29  2  0
 29 30  1  0
 30 31  2  0
 31 32  1  0
 32 33  2  0
 27 34  1  0
 34 35  2  0
 11  5  1  0
 35 19  1  0
 35 24  1  0
 33 28  1  0
  1 36  1  0
  1 37  1  0
  1 38  1  0
  2 39  1  0
  2 40  1  0
  4 41  1  0
  4 42  1  0
  6 43  1  0
  9 44  1  0
 10 45  1  0
 18 46  1  0
 18 47  1  0
 23 48  1  0
 23 49  1  0
 23 50  1  0
 25 51  1  0
 29 52  1  0
 30 53  1  0
 31 54  1  0
 32 55  1  0
 33 56  1  0
M  END
>  <meeko>  (7) 
{"is_sidechain": [false], "free_energy": -6.199, "intermolecular_energy": -7.781, "internal_energy": -3.019}

$$$$
A15_fine14_out
     RDKit          3D

 56 59  0  0  0  0  0  0  0  0999 V2000
    6.2190   13.5830    9.2510 C   0  0  0  0  0  0  0  0  0  0  0  0
    6.1100   14.6930    8.2180 C   0  0  0  0  0  0  0  0  0  0  0  0
    5.3030   14.3230    7.0510 N   0  0  0  0  0  0  0  0  0  0  0  0
    3.9130   13.9210    7.2850 C   0  0  0  0  0  0  0  0  0  0  0  0
    2.8920   14.8220    6.6110 C   0  0  0  0  0  0  0  0  0  0  0  0
    2.9520   16.2080    6.8590 C   0  0  0  0  0  0  0  0  0  0  0  0
    2.0400   17.0760    6.2720 C   0  0  0  0  0  0  0  0  0  0  0  0
    2.1130   18.3870    6.5300 F   0  0  0  0  0  0  0  0  0  0  0  0
    1.0550   16.6030    5.4200 C   0  0  0  0  0  0  0  0  0  0  0  0
    0.9850   15.2370    5.1470 C   0  0  0  0  0  0  0  0  0  0  0  0
    1.8970   14.3310    5.7280 C   0  0  0  0  0  0  0  0  0  0  0  0
    1.7820   12.8600    5.3850 C   0  0  0  0  0  0  0  0  0  0  0  0
    1.4320   12.1000    6.4590 F   0  0  0  0  0  0  0  0  0  0  0  0
    2.9370   12.3160    4.9090 F   0  0  0  0  0  0  0  0  0  0  0  0
    0.8430   12.6200    4.4290 F   0  0  0  0  0  0  0  0  0  0  0  0
    5.7460   14.4040    5.7300 C   0  0  0  0  0  0  0  0  0  0  0  0
    5.9460   15.4960    5.1850 O   0  0  0  0  0  0  0  0  0  0  0  0
    6.0200   13.1130    4.9480 C   0  0  0  0  0  0  0  0  0  0  0  0
    7.4160   12.8040    4.7710 N   0  0  0  0  0  0  0  0  0  0  0  0
    8.2150   13.1620    3.6730 C   0  0  0  0  0  0  0  0  0  0  0  0
    7.8810   13.8490    2.7220 O   0  0  0  0  0  0  0  0  0  0  0  0
    9.4780   12.5760    3.8950 N   0  0  0  0  0  0  0  0  0  0  0  0
   10.6170   12.6590    3.0270 C   0  0  0  0  0  0  0  0  0  0  0  0
    9.4190   11.8600    5.0900 C   0  0  0  0  0  0  0  0  0  0  0  0
   10.3110   11.1030    5.7790 C   0  0  0  0  0  0  0  0  0  0  0  0
    9.9610   10.5130    6.9440 N   0  0  0  0  0  0  0  0  0  0  0  0
    8.6880   10.7010    7.3980 C   0  0  0  0  0  0  0  0  0  0  0  0
    8.3100   10.0660    8.6770 C   0  0  0  0  0  0  0  0  0  0  0  0
    8.5860   10.6790    9.9150 C   0  0  0  0  0  0  0  0  0  0  0  0
    8.2260   10.0780   11.1260 C   0  0  0  0  0  0  0  0  0  0  0  0
    7.5780    8.8460   11.1280 C   0  0  0  0  0  0  0  0  0  0  0  0
    7.2910    8.2160    9.9210 C   0  0  0  0  0  0  0  0  0  0  0  0
    7.6520    8.8190    8.7130 C   0  0  0  0  0  0  0  0  0  0  0  0
    7.7470   11.4320    6.7640 N   0  0  0  0  0  0  0  0  0  0  0  0
    8.1590   11.9880    5.6300 C   0  0  0  0  0  0  0  0  0  0  0  0
    6.1764   14.0166   10.2610 H   0  0  0  0  0  0  0  0  0  0  0  0
    5.3859   12.8768    9.1197 H   0  0  0  0  0  0  0  0  0  0  0  0
    7.1736   13.0524    9.1197 H   0  0  0  0  0  0  0  0  0  0  0  0
    5.6505   15.5707    8.6960 H   0  0  0  0  0  0  0  0  0  0  0  0
    7.1277   14.9025    7.8568 H   0  0  0  0  0  0  0  0  0  0  0  0
    3.7788   12.8983    6.9028 H   0  0  0  0  0  0  0  0  0  0  0  0
    3.7371   13.9922    8.3685 H   0  0  0  0  0  0  0  0  0  0  0  0
    3.7306   16.6074    7.5256 H   0  0  0  0  0  0  0  0  0  0  0  0
    0.3351   17.2981    4.9633 H   0  0  0  0  0  0  0  0  0  0  0  0
    0.2062   14.8601    4.4678 H   0  0  0  0  0  0  0  0  0  0  0  0
    5.5496   12.2782    5.4882 H   0  0  0  0  0  0  0  0  0  0  0  0
    5.6040   13.2642    3.9410 H   0  0  0  0  0  0  0  0  0  0  0  0
   11.5340   12.7258    3.6308 H   0  0  0  0  0  0  0  0  0  0  0  0
   10.6605   11.7616    2.3923 H   0  0  0  0  0  0  0  0  0  0  0  0
   10.5299   13.5532    2.3923 H   0  0  0  0  0  0  0  0  0  0  0  0
   11.3292   10.9683    5.3852 H   0  0  0  0  0  0  0  0  0  0  0  0
    9.0966   11.6532    9.9299 H   0  0  0  0  0  0  0  0  0  0  0  0
    8.4553   10.5796   12.0777 H   0  0  0  0  0  0  0  0  0  0  0  0
    7.2941    8.3726   12.0795 H   0  0  0  0  0  0  0  0  0  0  0  0
    6.7794    7.2422    9.9176 H   0  0  0  0  0  0  0  0  0  0  0  0
    7.4172    8.3086    7.7673 H   0  0  0  0  0  0  0  0  0  0  0  0
  1  2  1  0
  2  3  1  0
  3  4  1  0
  4  5  1  0
  5  6  2  0
  6  7  1  0
  7  8  1  0
  7  9  2  0
  9 10  1  0
 10 11  2  0
 11 12  1  0
 12 13  1  0
 12 14  1  0
 12 15  1  0
  3 16  1  0
 16 17  2  0
 16 18  1  0
 18 19  1  0
 19 20  1  0
 20 21  2  0
 20 22  1  0
 22 23  1  0
 22 24  1  0
 24 25  2  0
 25 26  1  0
 26 27  2  0
 27 28  1  0
 28 29  2  0
 29 30  1  0
 30 31  2  0
 31 32  1  0
 32 33  2  0
 27 34  1  0
 34 35  2  0
 11  5  1  0
 35 19  1  0
 35 24  1  0
 33 28  1  0
  1 36  1  0
  1 37  1  0
  1 38  1  0
  2 39  1  0
  2 40  1  0
  4 41  1  0
  4 42  1  0
  6 43  1  0
  9 44  1  0
 10 45  1  0
 18 46  1  0
 18 47  1  0
 23 48  1  0
 23 49  1  0
 23 50  1  0
 25 51  1  0
 29 52  1  0
 30 53  1  0
 31 54  1  0
 32 55  1  0
 33 56  1  0
M  END
>  <meeko>  (8) 
{"is_sidechain": [false], "free_energy": -6.101, "intermolecular_energy": -8.843, "internal_energy": -1.811}

$$$$
A15_fine14_out
     RDKit          3D

 56 59  0  0  0  0  0  0  0  0999 V2000
    3.7020   13.8610    8.8480 C   0  0  0  0  0  0  0  0  0  0  0  0
    3.9290   15.3420    8.5880 C   0  0  0  0  0  0  0  0  0  0  0  0
    4.5460   15.6150    7.2860 N   0  0  0  0  0  0  0  0  0  0  0  0
    4.0610   14.8520    6.1310 C   0  0  0  0  0  0  0  0  0  0  0  0
    2.6450   15.2070    5.7110 C   0  0  0  0  0  0  0  0  0  0  0  0
    2.2900   16.5680    5.6320 C   0  0  0  0  0  0  0  0  0  0  0  0
    1.0070   16.9480    5.2570 C   0  0  0  0  0  0  0  0  0  0  0  0
    0.6930   18.2480    5.1980 F   0  0  0  0  0  0  0  0  0  0  0  0
    0.0480   16.0000    4.9400 C   0  0  0  0  0  0  0  0  0  0  0  0
    0.3820   14.6460    4.9950 C   0  0  0  0  0  0  0  0  0  0  0  0
    1.6760   14.2290    5.3730 C   0  0  0  0  0  0  0  0  0  0  0  0
    1.9840   12.7470    5.4020 C   0  0  0  0  0  0  0  0  0  0  0  0
    1.1920   12.0320    4.5570 F   0  0  0  0  0  0  0  0  0  0  0  0
    1.8210   12.1780    6.6290 F   0  0  0  0  0  0  0  0  0  0  0  0
    3.2670   12.4740    5.0400 F   0  0  0  0  0  0  0  0  0  0  0  0
    5.5030   16.6040    7.0600 C   0  0  0  0  0  0  0  0  0  0  0  0
    5.1880   17.7970    6.9800 O   0  0  0  0  0  0  0  0  0  0  0  0
    6.9800   16.2080    6.9410 C   0  0  0  0  0  0  0  0  0  0  0  0
    7.3380   15.5980    5.6860 N   0  0  0  0  0  0  0  0  0  0  0  0
    7.3090   16.2130    4.4230 C   0  0  0  0  0  0  0  0  0  0  0  0
    7.0440   17.3800    4.1870 O   0  0  0  0  0  0  0  0  0  0  0  0
    7.6560   15.2150    3.4900 N   0  0  0  0  0  0  0  0  0  0  0  0
    7.7440   15.3770    2.0670 C   0  0  0  0  0  0  0  0  0  0  0  0
    7.8590   14.0230    4.1850 C   0  0  0  0  0  0  0  0  0  0  0  0
    8.1910   12.7600    3.8120 C   0  0  0  0  0  0  0  0  0  0  0  0
    8.3200   11.7790    4.7330 N   0  0  0  0  0  0  0  0  0  0  0  0
    8.1030   12.1010    6.0420 C   0  0  0  0  0  0  0  0  0  0  0  0
    8.2570   11.0320    7.0500 C   0  0  0  0  0  0  0  0  0  0  0  0
    8.6500    9.7280    6.6910 C   0  0  0  0  0  0  0  0  0  0  0  0
    8.7980    8.7180    7.6470 C   0  0  0  0  0  0  0  0  0  0  0  0
    8.5540    8.9880    8.9900 C   0  0  0  0  0  0  0  0  0  0  0  0
    8.1650   10.2670    9.3770 C   0  0  0  0  0  0  0  0  0  0  0  0
    8.0190   11.2740    8.4190 C   0  0  0  0  0  0  0  0  0  0  0  0
    7.7640   13.3300    6.4850 N   0  0  0  0  0  0  0  0  0  0  0  0
    7.6600   14.2460    5.5290 C   0  0  0  0  0  0  0  0  0  0  0  0
    3.6741   13.6792    9.9325 H   0  0  0  0  0  0  0  0  0  0  0  0
    2.7461   13.5523    8.3998 H   0  0  0  0  0  0  0  0  0  0  0  0
    4.5216   13.2802    8.3998 H   0  0  0  0  0  0  0  0  0  0  0  0
    2.9575   15.8564    8.6286 H   0  0  0  0  0  0  0  0  0  0  0  0
    4.6234   15.7054    9.3599 H   0  0  0  0  0  0  0  0  0  0  0  0
    4.7330   15.0444    5.2816 H   0  0  0  0  0  0  0  0  0  0  0  0
    4.0503   13.7931    6.4288 H   0  0  0  0  0  0  0  0  0  0  0  0
    3.0374   17.3392    5.8700 H   0  0  0  0  0  0  0  0  0  0  0  0
   -0.9659   16.3110    4.6481 H   0  0  0  0  0  0  0  0  0  0  0  0
   -0.3762   13.8912    4.7394 H   0  0  0  0  0  0  0  0  0  0  0  0
    7.5897   17.1147    7.0680 H   0  0  0  0  0  0  0  0  0  0  0  0
    7.1638   15.4521    7.7187 H   0  0  0  0  0  0  0  0  0  0  0  0
    8.2574   16.3222    1.8366 H   0  0  0  0  0  0  0  0  0  0  0  0
    8.3102   14.5378    1.6367 H   0  0  0  0  0  0  0  0  0  0  0  0
    6.7318   15.3952    1.6367 H   0  0  0  0  0  0  0  0  0  0  0  0
    8.3568   12.5328    2.7486 H   0  0  0  0  0  0  0  0  0  0  0  0
    8.8453    9.4984    5.6331 H   0  0  0  0  0  0  0  0  0  0  0  0
    9.1076    7.7091    7.3369 H   0  0  0  0  0  0  0  0  0  0  0  0
    8.6681    8.1939    9.7426 H   0  0  0  0  0  0  0  0  0  0  0  0
    7.9723   10.4855   10.4377 H   0  0  0  0  0  0  0  0  0  0  0  0
    7.7110   12.2799    8.7405 H   0  0  0  0  0  0  0  0  0  0  0  0
  1  2  1  0
  2  3  1  0
  3  4  1  0
  4  5  1  0
  5  6  2  0
  6  7  1  0
  7  8  1  0
  7  9  2  0
  9 10  1  0
 10 11  2  0
 11 12  1  0
 12 13  1  0
 12 14  1  0
 12 15  1  0
  3 16  1  0
 16 17  2  0
 16 18  1  0
 18 19  1  0
 19 20  1  0
 20 21  2  0
 20 22  1  0
 22 23  1  0
 22 24  1  0
 24 25  2  0
 25 26  1  0
 26 27  2  0
 27 28  1  0
 28 29  2  0
 29 30  1  0
 30 31  2  0
 31 32  1  0
 32 33  2  0
 27 34  1  0
 34 35  2  0
 11  5  1  0
 35 19  1  0
 35 24  1  0
 33 28  1  0
  1 36  1  0
  1 37  1  0
  1 38  1  0
  2 39  1  0
  2 40  1  0
  4 41  1  0
  4 42  1  0
  6 43  1  0
  9 44  1  0
 10 45  1  0
 18 46  1  0
 18 47  1  0
 23 48  1  0
 23 49  1  0
 23 50  1  0
 25 51  1  0
 29 52  1  0
 30 53  1  0
 31 54  1  0
 32 55  1  0
 33 56  1  0
M  END
>  <meeko>  (9) 
{"is_sidechain": [false], "free_energy": -6.061, "intermolecular_energy": -9.036, "internal_energy": -1.56}

$$$$
A15_fine14_out
     RDKit          3D

 56 59  0  0  0  0  0  0  0  0999 V2000
    2.9420   13.1660   11.1430 C   0  0  0  0  0  0  0  0  0  0  0  0
    2.6600   13.5150    9.6900 C   0  0  0  0  0  0  0  0  0  0  0  0
    1.4750   14.3610    9.5160 N   0  0  0  0  0  0  0  0  0  0  0  0
    0.3920   13.8470    8.6720 C   0  0  0  0  0  0  0  0  0  0  0  0
    0.2820   14.5390    7.3240 C   0  0  0  0  0  0  0  0  0  0  0  0
   -0.4250   15.7550    7.2490 C   0  0  0  0  0  0  0  0  0  0  0  0
   -0.5580   16.4270    6.0400 C   0  0  0  0  0  0  0  0  0  0  0  0
   -1.2420   17.5770    5.9940 F   0  0  0  0  0  0  0  0  0  0  0  0
    0.0080   15.9240    4.8800 C   0  0  0  0  0  0  0  0  0  0  0  0
    0.7260   14.7290    4.9330 C   0  0  0  0  0  0  0  0  0  0  0  0
    0.8790   14.0240    6.1460 C   0  0  0  0  0  0  0  0  0  0  0  0
    1.6800   12.7390    6.1450 C   0  0  0  0  0  0  0  0  0  0  0  0
    1.8730   12.2440    4.8910 F   0  0  0  0  0  0  0  0  0  0  0  0
    1.0980   11.7310    6.8530 F   0  0  0  0  0  0  0  0  0  0  0  0
    2.9200   12.8970    6.6840 F   0  0  0  0  0  0  0  0  0  0  0  0
    1.2780   15.5820   10.1610 C   0  0  0  0  0  0  0  0  0  0  0  0
    0.2620   15.7980   10.8310 O   0  0  0  0  0  0  0  0  0  0  0  0
    2.3580   16.6680   10.0630 C   0  0  0  0  0  0  0  0  0  0  0  0
    2.4120   17.3480    8.7950 N   0  0  0  0  0  0  0  0  0  0  0  0
    1.6440   18.4610    8.4140 C   0  0  0  0  0  0  0  0  0  0  0  0
    0.8570   19.0760    9.1130 O   0  0  0  0  0  0  0  0  0  0  0  0
    1.9730   18.7260    7.0690 N   0  0  0  0  0  0  0  0  0  0  0  0
    1.4240   19.7680    6.2500 C   0  0  0  0  0  0  0  0  0  0  0  0
    2.8980   17.7690    6.6520 C   0  0  0  0  0  0  0  0  0  0  0  0
    3.5420   17.5290    5.4810 C   0  0  0  0  0  0  0  0  0  0  0  0
    4.4090   16.4980    5.3680 N   0  0  0  0  0  0  0  0  0  0  0  0
    4.6090   15.7100    6.4640 C   0  0  0  0  0  0  0  0  0  0  0  0
    5.5660   14.5910    6.3450 C   0  0  0  0  0  0  0  0  0  0  0  0
    6.3480   14.1680    7.4370 C   0  0  0  0  0  0  0  0  0  0  0  0
    7.2530   13.1070    7.3230 C   0  0  0  0  0  0  0  0  0  0  0  0
    7.3970   12.4410    6.1100 C   0  0  0  0  0  0  0  0  0  0  0  0
    6.6380   12.8350    5.0120 C   0  0  0  0  0  0  0  0  0  0  0  0
    5.7350   13.8960    5.1300 C   0  0  0  0  0  0  0  0  0  0  0  0
    4.0010   15.8840    7.6570 N   0  0  0  0  0  0  0  0  0  0  0  0
    3.1680   16.9180    7.7000 C   0  0  0  0  0  0  0  0  0  0  0  0
    2.3872   13.8526   11.7993 H   0  0  0  0  0  0  0  0  0  0  0  0
    2.6228   12.1320   11.3403 H   0  0  0  0  0  0  0  0  0  0  0  0
    4.0200   13.2610   11.3403 H   0  0  0  0  0  0  0  0  0  0  0  0
    3.5322   14.0479    9.2833 H   0  0  0  0  0  0  0  0  0  0  0  0
    2.4668   12.5708    9.1598 H   0  0  0  0  0  0  0  0  0  0  0  0
    0.5673   12.7751    8.4980 H   0  0  0  0  0  0  0  0  0  0  0  0
   -0.5494   14.0390    9.2077 H   0  0  0  0  0  0  0  0  0  0  0  0
   -0.8772   16.1777    8.1583 H   0  0  0  0  0  0  0  0  0  0  0  0
   -0.1075   16.4612    3.9271 H   0  0  0  0  0  0  0  0  0  0  0  0
    1.1803   14.3297    4.0142 H   0  0  0  0  0  0  0  0  0  0  0  0
    2.1638   17.4164   10.8455 H   0  0  0  0  0  0  0  0  0  0  0  0
    3.3248   16.1575   10.1840 H   0  0  0  0  0  0  0  0  0  0  0  0
    1.0077   20.5582    6.8921 H   0  0  0  0  0  0  0  0  0  0  0  0
    2.2163   20.1911    5.6149 H   0  0  0  0  0  0  0  0  0  0  0  0
    0.6271   19.3538    5.6149 H   0  0  0  0  0  0  0  0  0  0  0  0
    3.3562   18.1808    4.6146 H   0  0  0  0  0  0  0  0  0  0  0  0
    6.2449   14.6841    8.4029 H   0  0  0  0  0  0  0  0  0  0  0  0
    7.8512   12.7991    8.1933 H   0  0  0  0  0  0  0  0  0  0  0  0
    8.1078   11.6065    6.0192 H   0  0  0  0  0  0  0  0  0  0  0  0
    6.7485   12.3115    4.0509 H   0  0  0  0  0  0  0  0  0  0  0  0
    5.1419   14.1958    4.2534 H   0  0  0  0  0  0  0  0  0  0  0  0
  1  2  1  0
  2  3  1  0
  3  4  1  0
  4  5  1  0
  5  6  2  0
  6  7  1  0
  7  8  1  0
  7  9  2  0
  9 10  1  0
 10 11  2  0
 11 12  1  0
 12 13  1  0
 12 14  1  0
 12 15  1  0
  3 16  1  0
 16 17  2  0
 16 18  1  0
 18 19  1  0
 19 20  1  0
 20 21  2  0
 20 22  1  0
 22 23  1  0
 22 24  1  0
 24 25  2  0
 25 26  1  0
 26 27  2  0
 27 28  1  0
 28 29  2  0
 29 30  1  0
 30 31  2  0
 31 32  1  0
 32 33  2  0
 27 34  1  0
 34 35  2  0
 11  5  1  0
 35 19  1  0
 35 24  1  0
 33 28  1  0
  1 36  1  0
  1 37  1  0
  1 38  1  0
  2 39  1  0
  2 40  1  0
  4 41  1  0
  4 42  1  0
  6 43  1  0
  9 44  1  0
 10 45  1  0
 18 46  1  0
 18 47  1  0
 23 48  1  0
 23 49  1  0
 23 50  1  0
 25 51  1  0
 29 52  1  0
 30 53  1  0
 31 54  1  0
 32 55  1  0
 33 56  1  0
M  END
>  <meeko>  (10) 
{"is_sidechain": [false], "free_energy": -6.053, "intermolecular_energy": -7.664, "internal_energy": -2.921}

$$$$
