
     RDKit          3D

 53 56  0  0  0  0  0  0  0  0999 V2000
   -3.9753   -1.5839   -1.4042 C   0  0  0  0  0  0  0  0  0  0  0  0
   -2.9402   -0.4688   -1.4058 C   0  0  0  0  0  0  0  0  0  0  0  0
   -2.2231   -0.3713   -0.1284 N   0  0  0  0  0  0  0  0  0  0  0  0
   -1.1122   -1.1741    0.1714 C   0  0  0  0  0  0  0  0  0  0  0  0
   -0.7491   -1.3645    1.3353 O   0  0  0  0  0  0  0  0  0  0  0  0
   -0.3679   -1.8013   -1.0187 C   0  0  0  0  0  0  0  0  0  0  0  0
    0.8223   -2.4867   -0.5952 N   0  0  0  0  0  0  0  0  0  0  0  0
    0.9015   -3.8385   -0.2244 C   0  0  0  0  0  0  0  0  0  0  0  0
    0.0278   -4.6817   -0.3475 O   0  0  0  0  0  0  0  0  0  0  0  0
    2.1920   -4.0233    0.3155 N   0  0  0  0  0  0  0  0  0  0  0  0
    2.8344   -2.7833    0.3299 C   0  0  0  0  0  0  0  0  0  0  0  0
    1.9995   -1.8350   -0.2192 C   0  0  0  0  0  0  0  0  0  0  0  0
    2.2769   -0.5391   -0.3557 N   0  0  0  0  0  0  0  0  0  0  0  0
    3.4944   -0.1900    0.1158 C   0  0  0  0  0  0  0  0  0  0  0  0
    4.3975   -1.0543    0.6668 N   0  0  0  0  0  0  0  0  0  0  0  0
    4.0443   -2.3547    0.7717 C   0  0  0  0  0  0  0  0  0  0  0  0
    3.8794    1.2346    0.0249 C   0  0  0  0  0  0  0  0  0  0  0  0
    5.1736    1.6723    0.3680 C   0  0  0  0  0  0  0  0  0  0  0  0
    5.5373    3.0206    0.2840 C   0  0  0  0  0  0  0  0  0  0  0  0
    4.6115    3.9668   -0.1445 C   0  0  0  0  0  0  0  0  0  0  0  0
    3.3244    3.5663   -0.4883 C   0  0  0  0  0  0  0  0  0  0  0  0
    2.9655    2.2170   -0.4048 C   0  0  0  0  0  0  0  0  0  0  0  0
    2.7036   -5.2333    0.8877 C   0  0  0  0  0  0  0  0  0  0  0  0
   -2.9123    0.2323    1.0172 C   0  0  0  0  0  0  0  0  0  0  0  0
   -3.5277    1.5843    0.7369 C   0  0  0  0  0  0  0  0  0  0  0  0
   -4.9304    1.7009    0.6887 C   0  0  0  0  0  0  0  0  0  0  0  0
   -5.5330    2.9322    0.4285 C   0  0  0  0  0  0  0  0  0  0  0  0
   -7.2479    3.0467    0.3670 Cl  0  0  0  0  0  0  0  0  0  0  0  0
   -4.7560    4.0666    0.2159 C   0  0  0  0  0  0  0  0  0  0  0  0
   -3.3648    3.9680    0.2640 C   0  0  0  0  0  0  0  0  0  0  0  0
   -2.7521    2.7365    0.5226 C   0  0  0  0  0  0  0  0  0  0  0  0
   -1.0263    2.6990    0.5623 Cl  0  0  0  0  0  0  0  0  0  0  0  0
   -3.5157   -2.5524   -1.1831 H   0  0  0  0  0  0  0  0  0  0  0  0
   -4.7515   -1.4042   -0.6539 H   0  0  0  0  0  0  0  0  0  0  0  0
   -4.4609   -1.6508   -2.3827 H   0  0  0  0  0  0  0  0  0  0  0  0
   -2.2299   -0.6476   -2.2172 H   0  0  0  0  0  0  0  0  0  0  0  0
   -3.4155    0.4900   -1.6324 H   0  0  0  0  0  0  0  0  0  0  0  0
   -1.0284   -2.5294   -1.4995 H   0  0  0  0  0  0  0  0  0  0  0  0
   -0.0874   -1.0230   -1.7355 H   0  0  0  0  0  0  0  0  0  0  0  0
    4.7748   -3.0125    1.2246 H   0  0  0  0  0  0  0  0  0  0  0  0
    5.9180    0.9542    0.7089 H   0  0  0  0  0  0  0  0  0  0  0  0
    6.5438    3.3273    0.5566 H   0  0  0  0  0  0  0  0  0  0  0  0
    4.8917    5.0149   -0.2073 H   0  0  0  0  0  0  0  0  0  0  0  0
    2.5936    4.2999   -0.8185 H   0  0  0  0  0  0  0  0  0  0  0  0
    1.9489    1.9336   -0.6741 H   0  0  0  0  0  0  0  0  0  0  0  0
    2.8070   -5.1032    1.9688 H   0  0  0  0  0  0  0  0  0  0  0  0
    2.0183   -6.0631    0.6940 H   0  0  0  0  0  0  0  0  0  0  0  0
    3.6785   -5.4607    0.4473 H   0  0  0  0  0  0  0  0  0  0  0  0
   -2.2343    0.3390    1.8726 H   0  0  0  0  0  0  0  0  0  0  0  0
   -3.6788   -0.4826    1.3419 H   0  0  0  0  0  0  0  0  0  0  0  0
   -5.5565    0.8260    0.8536 H   0  0  0  0  0  0  0  0  0  0  0  0
   -5.2230    5.0272    0.0147 H   0  0  0  0  0  0  0  0  0  0  0  0
   -2.7604    4.8573    0.0997 H   0  0  0  0  0  0  0  0  0  0  0  0
  1  2  1  0
  2  3  1  0
  3  4  1  0
  4  5  2  0
  4  6  1  0
  6  7  1  0
  7  8  1  0
  8  9  2  0
  8 10  1  0
 10 11  1  0
 11 12  2  0
 12 13  1  0
 13 14  2  0
 14 15  1  0
 15 16  2  0
 14 17  1  0
 17 18  2  0
 18 19  1  0
 19 20  2  0
 20 21  1  0
 21 22  2  0
 10 23  1  0
  3 24  1  0
 24 25  1  0
 25 26  2  0
 26 27  1  0
 27 28  1  0
 27 29  2  0
 29 30  1  0
 30 31  2  0
 31 32  1  0
 12  7  1  0
 22 17  1  0
 31 25  1  0
 16 11  1  0
  1 33  1  0
  1 34  1  0
  1 35  1  0
  2 36  1  0
  2 37  1  0
  6 38  1  0
  6 39  1  0
 16 40  1  0
 18 41  1  0
 19 42  1  0
 20 43  1  0
 21 44  1  0
 22 45  1  0
 23 46  1  0
 23 47  1  0
 23 48  1  0
 24 49  1  0
 24 50  1  0
 26 51  1  0
 29 52  1  0
 30 53  1  0
M  END
$$$$
