A15_fine14_out
 OpenBabel08022615473D

 56 59  0  0  0  0  0  0  0  0999 V2000
    2.9840   13.1600    9.6330 C   0  0  0  0  0  0  0  0  0  0  0  0
    2.6210   14.4090    8.8450 C   0  0  0  0  0  0  0  0  0  0  0  0
    3.7720   15.0320    8.1820 N   0  0  0  0  0  0  0  0  0  0  0  0
    3.8050   15.0100    6.7170 C   0  0  0  0  0  0  0  0  0  0  0  0
    2.4600   15.2870    6.0670 C   0  0  0  0  0  0  0  0  0  0  0  0
    1.9920   16.6160    6.0320 C   0  0  0  0  0  0  0  0  0  0  0  0
    0.7670   16.9240    5.4530 C   0  0  0  0  0  0  0  0  0  0  0  0
    0.3420   18.1930    5.4400 F   0  0  0  0  0  0  0  0  0  0  0  0
   -0.0210   15.9340    4.8880 C   0  0  0  0  0  0  0  0  0  0  0  0
    0.4280   14.6130    4.8980 C   0  0  0  0  0  0  0  0  0  0  0  0
    1.6680   14.2700    5.4770 C   0  0  0  0  0  0  0  0  0  0  0  0
    2.1100   12.8220    5.4470 C   0  0  0  0  0  0  0  0  0  0  0  0
    3.4370   12.6870    5.1780 F   0  0  0  0  0  0  0  0  0  0  0  0
    1.4660   12.0720    4.5090 F   0  0  0  0  0  0  0  0  0  0  0  0
    1.8980   12.1870    6.6320 F   0  0  0  0  0  0  0  0  0  0  0  0
    4.7920   15.7100    8.8490 C   0  0  0  0  0  0  0  0  0  0  0  0
    4.5430   16.5170    9.7530 O   0  0  0  0  0  0  0  0  0  0  0  0
    6.2530   15.4260    8.4770 C   0  0  0  0  0  0  0  0  0  0  0  0
    6.6730   14.0650    8.6930 N   0  0  0  0  0  0  0  0  0  0  0  0
    6.6780   13.3810    9.9200 C   0  0  0  0  0  0  0  0  0  0  0  0
    6.2650   13.7990   10.9880 O   0  0  0  0  0  0  0  0  0  0  0  0
    7.2460   12.1160    9.6640 N   0  0  0  0  0  0  0  0  0  0  0  0
    7.4680   11.0760   10.6250 C   0  0  0  0  0  0  0  0  0  0  0  0
    7.5970   12.0640    8.3150 C   0  0  0  0  0  0  0  0  0  0  0  0
    8.1800   11.1210    7.5300 C   0  0  0  0  0  0  0  0  0  0  0  0
    8.4030   11.3580    6.2180 N   0  0  0  0  0  0  0  0  0  0  0  0
    8.0290   12.5700    5.7160 C   0  0  0  0  0  0  0  0  0  0  0  0
    8.2620   12.8240    4.2790 C   0  0  0  0  0  0  0  0  0  0  0  0
    9.5070   12.5620    3.6740 C   0  0  0  0  0  0  0  0  0  0  0  0
    9.7250   12.8010    2.3130 C   0  0  0  0  0  0  0  0  0  0  0  0
    8.6990   13.3090    1.5210 C   0  0  0  0  0  0  0  0  0  0  0  0
    7.4580   13.5770    2.0890 C   0  0  0  0  0  0  0  0  0  0  0  0
    7.2430   13.3370    3.4490 C   0  0  0  0  0  0  0  0  0  0  0  0
    7.4530   13.5560    6.4360 N   0  0  0  0  0  0  0  0  0  0  0  0
    7.2570   13.2550    7.7150 C   0  0  0  0  0  0  0  0  0  0  0  0
    2.9215   13.3749   10.7100 H   0  0  0  0  0  0  0  0  0  0  0  0
    2.2841   12.3502    9.3795 H   0  0  0  0  0  0  0  0  0  0  0  0
    4.0090   12.8515    9.3795 H   0  0  0  0  0  0  0  0  0  0  0  0
    1.8821   14.1351    8.0775 H   0  0  0  0  0  0  0  0  0  0  0  0
    2.2220   15.1418    9.5618 H   0  0  0  0  0  0  0  0  0  0  0  0
    4.5188   15.7739    6.3751 H   0  0  0  0  0  0  0  0  0  0  0  0
    4.1002   13.9930    6.4194 H   0  0  0  0  0  0  0  0  0  0  0  0
    2.6040   17.4192    6.4684 H   0  0  0  0  0  0  0  0  0  0  0  0
   -0.9913   16.1872    4.4359 H   0  0  0  0  0  0  0  0  0  0  0  0
   -0.1948   13.8263    4.4472 H   0  0  0  0  0  0  0  0  0  0  0  0
    6.3877   15.6616    7.4110 H   0  0  0  0  0  0  0  0  0  0  0  0
    6.8704   16.0516    9.1384 H   0  0  0  0  0  0  0  0  0  0  0  0
    7.3796   11.4900   11.6403 H   0  0  0  0  0  0  0  0  0  0  0  0
    6.7190   10.2824   10.4861 H   0  0  0  0  0  0  0  0  0  0  0  0
    8.4757   10.6574   10.4861 H   0  0  0  0  0  0  0  0  0  0  0  0
    8.4736   10.1549    7.9664 H   0  0  0  0  0  0  0  0  0  0  0  0
   10.3274   12.1598    4.2865 H   0  0  0  0  0  0  0  0  0  0  0  0
   10.7081   12.5873    1.8682 H   0  0  0  0  0  0  0  0  0  0  0  0
    8.8690   13.4976    0.4507 H   0  0  0  0  0  0  0  0  0  0  0  0
    6.6445   13.9785    1.4669 H   0  0  0  0  0  0  0  0  0  0  0  0
    6.2555   13.5533    3.8827 H   0  0  0  0  0  0  0  0  0  0  0  0
  1  2  1  0  0  0  0
  1 36  1  0  0  0  0
  1 37  1  0  0  0  0
  1 38  1  0  0  0  0
  2  3  1  0  0  0  0
  2 39  1  0  0  0  0
  2 40  1  0  0  0  0
  3  4  1  0  0  0  0
  3 16  1  0  0  0  0
  4  5  1  0  0  0  0
  4 41  1  0  0  0  0
  4 42  1  0  0  0  0
  5  6  2  0  0  0  0
  6  7  1  0  0  0  0
  6 43  1  0  0  0  0
  7  8  1  0  0  0  0
  7  9  2  0  0  0  0
  9 10  1  0  0  0  0
  9 44  1  0  0  0  0
 10 11  2  0  0  0  0
 10 45  1  0  0  0  0
 11 12  1  0  0  0  0
 11  5  1  0  0  0  0
 12 13  1  0  0  0  0
 12 14  1  0  0  0  0
 12 15  1  0  0  0  0
 16 17  2  0  0  0  0
 16 18  1  0  0  0  0
 18 19  1  0  0  0  0
 18 46  1  0  0  0  0
 18 47  1  0  0  0  0
 19 20  1  0  0  0  0
 20 21  2  0  0  0  0
 20 22  1  0  0  0  0
 22 23  1  0  0  0  0
 22 24  1  0  0  0  0
 23 48  1  0  0  0  0
 23 49  1  0  0  0  0
 23 50  1  0  0  0  0
 24 25  2  0  0  0  0
 25 26  1  0  0  0  0
 25 51  1  0  0  0  0
 26 27  2  0  0  0  0
 27 28  1  0  0  0  0
 27 34  1  0  0  0  0
 28 29  2  0  0  0  0
 29 30  1  0  0  0  0
 29 52  1  0  0  0  0
 30 31  2  0  0  0  0
 30 53  1  0  0  0  0
 31 32  1  0  0  0  0
 31 54  1  0  0  0  0
 32 33  2  0  0  0  0
 32 55  1  0  0  0  0
 33 28  1  0  0  0  0
 33 56  1  0  0  0  0
 34 35  2  0  0  0  0
 35 19  1  0  0  0  0
 35 24  1  0  0  0  0
M  END
>  <meeko>
{"is_sidechain": [false], "free_energy": -6.401, "intermolecular_energy": -9.395, "internal_energy": -1.701}

$$$$
