emap3_Bn-3,4diCl_Me
 OpenBabel07042618103D

 32 35  0  0  0  0  0  0  0  0999 V2000
    6.4070   13.5890    9.1360 N   0  0  0  0  0  0  0  0  0  0  0  0
    5.8900   13.5910    7.8960 C   0  0  0  0  0  0  0  0  0  0  0  0
    6.8340   13.2110    6.9980 C   0  0  0  0  0  0  0  0  0  0  0  0
    6.5240   13.1290    5.6490 C   0  0  0  0  0  3  0  0  0  0  0  0
    5.2470   13.4470    5.2800 N   0  0  0  0  0  0  0  0  0  0  0  0
    4.3000   13.8340    6.2000 C   0  0  0  0  0  0  0  0  0  0  0  0
    4.6250   13.9070    7.5300 N   0  0  0  0  0  0  0  0  0  0  0  0
    7.9850   12.9550    7.6430 N   0  0  0  0  0  0  0  0  0  0  0  0
    7.6930   13.1930    8.9470 C   0  0  0  0  0  0  0  0  0  0  0  0
    8.5300   13.0670    9.8820 O   0  0  0  0  0  0  0  0  0  0  0  0
    9.2520   12.5200    7.0760 C   0  0  0  0  0  1  0  0  0  0  0  0
    2.9330   14.1680    5.7560 C   0  0  0  0  0  0  0  0  0  0  0  0
    2.4870   15.4980    5.7710 C   0  0  0  0  0  3  0  0  0  0  0  0
    1.1930   15.8160    5.3490 C   0  0  0  0  0  3  0  0  0  0  0  0
    0.3330   14.8050    4.9100 C   0  0  0  0  0  3  0  0  0  0  0  0
    0.7680   13.4780    4.8930 C   0  0  0  0  0  3  0  0  0  0  0  0
    2.0630   13.1610    5.3140 C   0  0  0  0  0  3  0  0  0  0  0  0
    5.7230   13.9140   10.3830 C   0  0  0  0  0  2  0  0  0  0  0  0
    4.7160   11.7690   11.3380 N   0  0  0  0  0  0  0  0  0  0  0  0
    4.5550   13.0020   10.6130 C   0  0  0  0  0  0  0  0  0  0  0  0
    3.4320   13.3040   10.1250 O   0  0  0  0  0  0  0  0  0  0  0  0
    2.9450   11.2980   12.9520 C   0  0  0  0  0  1  0  0  0  0  0  0
    3.5670   10.9170   11.6210 C   0  0  0  0  0  2  0  0  0  0  0  0
    6.0200   11.3620   11.8550 C   0  0  0  0  0  2  0  0  0  0  0  0
    6.4480   10.0570   11.2610 C   0  0  0  0  0  0  0  0  0  0  0  0
    6.3070    8.8450   11.9630 C   0  0  0  0  0  0  0  0  0  0  0  0
    5.5800    8.7820   13.5620 Cl  0  0  0  0  0  0  0  0  0  0  0  0
    6.7320    7.6480   11.3760 C   0  0  0  0  0  3  0  0  0  0  0  0
    7.2980    7.6510   10.0980 C   0  0  0  0  0  3  0  0  0  0  0  0
    7.4350    8.8520    9.3990 C   0  0  0  0  0  0  0  0  0  0  0  0
    8.1480    8.8610    7.8010 Cl  0  0  0  0  0  0  0  0  0  0  0  0
    7.0120   10.0500    9.9790 C   0  0  0  0  0  3  0  0  0  0  0  0
  1 18  1  0  0  0  0
  2  1  1  0  0  0  0
  3  8  1  0  0  0  0
  3  2  1  0  0  0  0
  4  3  2  0  0  0  0
  5  4  1  0  0  0  0
  5  6  2  0  0  0  0
  6  7  1  0  0  0  0
  7  2  2  0  0  0  0
  8  9  1  0  0  0  0
  9  1  1  0  0  0  0
  9 10  2  0  0  0  0
 11  8  1  0  0  0  0
 12 13  1  0  0  0  0
 12  6  1  0  0  0  0
 14 13  2  0  0  0  0
 15 14  1  0  0  0  0
 16 15  2  0  0  0  0
 16 17  1  0  0  0  0
 17 12  2  0  0  0  0
 18 20  1  0  0  0  0
 19 23  1  0  0  0  0
 19 24  1  0  0  0  0
 20 19  1  0  0  0  0
 21 20  2  0  0  0  0
 23 22  1  0  0  0  0
 25 24  1  0  0  0  0
 25 26  1  0  0  0  0
 26 27  1  0  0  0  0
 28 26  2  0  0  0  0
 29 28  1  0  0  0  0
 30 32  1  0  0  0  0
 30 29  2  0  0  0  0
 31 30  1  0  0  0  0
 32 25  2  0  0  0  0
M  END
>  <MODEL>
1

>  <REMARK>
 VINA RESULT:    -6.076      0.000      0.000
 INTER + INTRA:          -9.156
 INTER:                  -8.207
 INTRA:                  -0.949
 UNBOUND:                -0.949
  Name = emap3_Bn-3,4diCl_Me
  8 active torsions:
  status: ('A' for Active; 'I' for Inactive)
    1  A    between atoms: C_1  and  C_2
    2  A    between atoms: C_2  and  N_3
    3  A    between atoms: N_3  and  C_4
    4  A    between atoms: C_4  and  C_5
    5  A    between atoms: C_13  and  C_15
    6  A    between atoms: C_15  and  N_16
    7  A    between atoms: C_21  and  C_23
    8  A    between atoms: N_29  and  C_32
                            x       y       z     vdW  Elec       q    Type
                         _______ _______ _______ _____ _____    ______ ____

>  <TORSDO>
F 6

$$$$
