A15_meeko_out
 OpenBabel07162615343D

 53 56  0  0  0  0  0  0  0  0999 V2000
    9.8640   16.7040    4.0810 C   0  0  0  0  0  0  0  0  0  0  0  0
   10.1630   15.3190    3.5290 C   0  0  0  0  0  0  0  0  0  0  0  0
    8.9720   14.6770    2.9570 N   0  0  0  0  0  0  0  0  0  0  0  0
    7.9990   15.5130    2.2460 C   0  0  0  0  0  0  0  0  0  0  0  0
    7.7430   15.0970    0.8160 C   0  0  0  0  0  0  0  0  0  0  0  0
    6.5740   14.3730    0.5120 C   0  0  0  0  0  0  0  0  0  0  0  0
    6.3070   13.9680   -0.7960 C   0  0  0  0  0  0  0  0  0  0  0  0
    4.8760   13.0780   -1.1390 Cl  0  0  0  0  0  0  0  0  0  0  0  0
    7.1910   14.2790   -1.8250 C   0  0  0  0  0  0  0  0  0  0  0  0
    8.3520   14.9990   -1.5410 C   0  0  0  0  0  0  0  0  0  0  0  0
    8.6280   15.4080   -0.2300 C   0  0  0  0  0  0  0  0  0  0  0  0
   10.0880   16.2920    0.0360 Cl  0  0  0  0  0  0  0  0  0  0  0  0
    8.9180   13.3010    2.6890 C   0  0  0  0  0  0  0  0  0  0  0  0
    9.6670   12.7760    1.8610 O   0  0  0  0  0  0  0  0  0  0  0  0
    7.8800   12.4810    3.4730 C   0  0  0  0  0  0  0  0  0  0  0  0
    7.9660   12.7350    4.8860 N   0  0  0  0  0  0  0  0  0  0  0  0
    9.0380   12.3810    5.7190 C   0  0  0  0  0  0  0  0  0  0  0  0
   10.1250   11.9510    5.3680 O   0  0  0  0  0  0  0  0  0  0  0  0
    8.6070   12.6260    7.0400 N   0  0  0  0  0  0  0  0  0  0  0  0
    9.3480   12.3510    8.2360 C   0  0  0  0  0  0  0  0  0  0  0  0
    7.2760   13.0470    6.9880 C   0  0  0  0  0  0  0  0  0  0  0  0
    6.3540   13.3690    7.9300 C   0  0  0  0  0  0  0  0  0  0  0  0
    5.1020   13.7340    7.5740 N   0  0  0  0  0  0  0  0  0  0  0  0
    4.7970   13.7550    6.2420 C   0  0  0  0  0  0  0  0  0  0  0  0
    3.4190   14.1340    5.8620 C   0  0  0  0  0  0  0  0  0  0  0  0
    2.4540   13.1640    5.5240 C   0  0  0  0  0  0  0  0  0  0  0  0
    1.1510   13.5240    5.1620 C   0  0  0  0  0  0  0  0  0  0  0  0
    0.7810   14.8640    5.1280 C   0  0  0  0  0  0  0  0  0  0  0  0
    1.7130   15.8450    5.4550 C   0  0  0  0  0  0  0  0  0  0  0  0
    3.0130   15.4820    5.8190 C   0  0  0  0  0  0  0  0  0  0  0  0
    5.6600   13.4590    5.2460 N   0  0  0  0  0  0  0  0  0  0  0  0
    6.8730   13.1090    5.6730 C   0  0  0  0  0  0  0  0  0  0  0  0
    9.8713   16.6700    5.1804 H   0  0  0  0  0  0  0  0  0  0  0  0
   10.6301   17.4115    3.7309 H   0  0  0  0  0  0  0  0  0  0  0  0
    8.8743   17.0324    3.7309 H   0  0  0  0  0  0  0  0  0  0  0  0
   10.9279   15.4089    2.7436 H   0  0  0  0  0  0  0  0  0  0  0  0
   10.5144   14.6934    4.3628 H   0  0  0  0  0  0  0  0  0  0  0  0
    7.0452   15.4705    2.7923 H   0  0  0  0  0  0  0  0  0  0  0  0
    8.4265   16.5257    2.2058 H   0  0  0  0  0  0  0  0  0  0  0  0
    5.8639   14.1242    1.3144 H   0  0  0  0  0  0  0  0  0  0  0  0
    6.9759   13.9593   -2.8553 H   0  0  0  0  0  0  0  0  0  0  0  0
    9.0541   15.2467   -2.3507 H   0  0  0  0  0  0  0  0  0  0  0  0
    6.8728   12.7501    3.1221 H   0  0  0  0  0  0  0  0  0  0  0  0
    8.0822   11.4135    3.3012 H   0  0  0  0  0  0  0  0  0  0  0  0
    8.7264   12.5817    9.1137 H   0  0  0  0  0  0  0  0  0  0  0  0
    9.6306   11.2881    8.2560 H   0  0  0  0  0  0  0  0  0  0  0  0
   10.2556   12.9722    8.2560 H   0  0  0  0  0  0  0  0  0  0  0  0
    6.6282   13.3327    8.9946 H   0  0  0  0  0  0  0  0  0  0  0  0
    2.7313   12.0997    5.5452 H   0  0  0  0  0  0  0  0  0  0  0  0
    0.4181   12.7454    4.9038 H   0  0  0  0  0  0  0  0  0  0  0  0
   -0.2432   15.1475    4.8441 H   0  0  0  0  0  0  0  0  0  0  0  0
    1.4263   16.9066    5.4269 H   0  0  0  0  0  0  0  0  0  0  0  0
    3.7368   16.2687    6.0783 H   0  0  0  0  0  0  0  0  0  0  0  0
  1  2  1  0  0  0  0
  1 33  1  0  0  0  0
  1 34  1  0  0  0  0
  1 35  1  0  0  0  0
  2  3  1  0  0  0  0
  2 36  1  0  0  0  0
  2 37  1  0  0  0  0
  3  4  1  0  0  0  0
  3 13  1  0  0  0  0
  4  5  1  0  0  0  0
  4 38  1  0  0  0  0
  4 39  1  0  0  0  0
  5  6  2  0  0  0  0
  6  7  1  0  0  0  0
  6 40  1  0  0  0  0
  7  8  1  0  0  0  0
  7  9  2  0  0  0  0
  9 10  1  0  0  0  0
  9 41  1  0  0  0  0
 10 11  2  0  0  0  0
 10 42  1  0  0  0  0
 11 12  1  0  0  0  0
 11  5  1  0  0  0  0
 13 14  2  0  0  0  0
 13 15  1  0  0  0  0
 15 16  1  0  0  0  0
 15 43  1  0  0  0  0
 15 44  1  0  0  0  0
 16 17  1  0  0  0  0
 17 18  2  0  0  0  0
 17 19  1  0  0  0  0
 19 20  1  0  0  0  0
 19 21  1  0  0  0  0
 20 45  1  0  0  0  0
 20 46  1  0  0  0  0
 20 47  1  0  0  0  0
 21 22  2  0  0  0  0
 22 23  1  0  0  0  0
 22 48  1  0  0  0  0
 23 24  2  0  0  0  0
 24 25  1  0  0  0  0
 24 31  1  0  0  0  0
 25 26  2  0  0  0  0
 26 27  1  0  0  0  0
 26 49  1  0  0  0  0
 27 28  2  0  0  0  0
 27 50  1  0  0  0  0
 28 29  1  0  0  0  0
 28 51  1  0  0  0  0
 29 30  2  0  0  0  0
 29 52  1  0  0  0  0
 30 25  1  0  0  0  0
 30 53  1  0  0  0  0
 31 32  2  0  0  0  0
 32 16  1  0  0  0  0
 32 21  1  0  0  0  0
M  END
>  <meeko>
{"is_sidechain": [false], "free_energy": -6.697, "intermolecular_energy": -9.437, "internal_energy": -1.234}

$$$$
