AC5216_meeko_out
 OpenBabel07062610263D

 53 56  0  0  0  0  0  0  0  0999 V2000
    5.4390   17.2900    5.4770 C   0  0  0  0  0  0  0  0  0  0  0  0
    5.5880   15.8180    5.1550 C   0  0  0  0  0  0  0  0  0  0  0  0
    5.4620   14.9940    6.3510 N   0  0  0  0  0  0  0  0  0  0  0  0
    4.2110   15.1520    7.0880 C   0  0  0  0  0  0  0  0  0  0  0  0
    3.0340   14.6330    6.3140 C   0  0  0  0  0  0  0  0  0  0  0  0
    2.9560   13.2800    6.0070 C   0  0  0  0  0  0  0  0  0  0  0  0
    1.8630   12.7970    5.2880 C   0  0  0  0  0  0  0  0  0  0  0  0
    0.8560   13.6710    4.8790 C   0  0  0  0  0  0  0  0  0  0  0  0
    0.9410   15.0280    5.1900 C   0  0  0  0  0  0  0  0  0  0  0  0
    2.0350   15.5110    5.9100 C   0  0  0  0  0  0  0  0  0  0  0  0
    6.4680   14.1120    6.7640 C   0  0  0  0  0  0  0  0  0  0  0  0
    7.3410   14.4120    7.5810 O   0  0  0  0  0  0  0  0  0  0  0  0
    6.4300   12.7270    6.1410 C   0  0  0  0  0  0  0  0  0  0  0  0
    7.7040   12.4200    5.5460 N   0  0  0  0  0  0  0  0  0  0  0  0
    8.7750   11.6880    6.1350 C   0  0  0  0  0  0  0  0  0  0  0  0
    8.8050   11.1880    7.2510 O   0  0  0  0  0  0  0  0  0  0  0  0
    9.8010   11.6630    5.1480 N   0  0  0  0  0  0  0  0  0  0  0  0
   11.0870   11.0300    5.2890 C   0  0  0  0  0  0  0  0  0  0  0  0
    9.3520   12.3550    4.0200 C   0  0  0  0  0  0  0  0  0  0  0  0
    9.9330   12.6240    2.8120 C   0  0  0  0  0  0  0  0  0  0  0  0
    9.2710   13.3300    1.8690 N   0  0  0  0  0  0  0  0  0  0  0  0
    8.0170   13.7400    2.2030 C   0  0  0  0  0  0  0  0  0  0  0  0
    7.3110   14.4940    1.1990 C   0  0  0  0  0  0  0  0  0  0  0  0
    6.6470   13.8330    0.1620 C   0  0  0  0  0  0  0  0  0  0  0  0
    5.9600   14.5620   -0.8090 C   0  0  0  0  0  0  0  0  0  0  0  0
    5.9360   15.9560   -0.7470 C   0  0  0  0  0  0  0  0  0  0  0  0
    6.5970   16.6190    0.2860 C   0  0  0  0  0  0  0  0  0  0  0  0
    7.2830   15.8900    1.2580 C   0  0  0  0  0  0  0  0  0  0  0  0
    7.3570   13.5260    3.3650 N   0  0  0  0  0  0  0  0  0  0  0  0
    8.0720   12.8220    4.2500 C   0  0  0  0  0  0  0  0  0  0  0  0
    5.4251   17.4270    6.5683 H   0  0  0  0  0  0  0  0  0  0  0  0
    6.2854   17.8466    5.0483 H   0  0  0  0  0  0  0  0  0  0  0  0
    4.4982   17.6657    5.0483 H   0  0  0  0  0  0  0  0  0  0  0  0
    4.8064   15.5282    4.4373 H   0  0  0  0  0  0  0  0  0  0  0  0
    6.5895   15.6575    4.7293 H   0  0  0  0  0  0  0  0  0  0  0  0
    4.2848   14.5988    8.0359 H   0  0  0  0  0  0  0  0  0  0  0  0
    4.0543   16.2262    7.2659 H   0  0  0  0  0  0  0  0  0  0  0  0
    3.7525   12.5933    6.3295 H   0  0  0  0  0  0  0  0  0  0  0  0
    1.7951   11.7267    5.0435 H   0  0  0  0  0  0  0  0  0  0  0  0
   -0.0055   13.2900    4.3110 H   0  0  0  0  0  0  0  0  0  0  0  0
    0.1464   15.7172    4.8681 H   0  0  0  0  0  0  0  0  0  0  0  0
    2.1061   16.5807    6.1563 H   0  0  0  0  0  0  0  0  0  0  0  0
    6.2028   11.9836    6.9192 H   0  0  0  0  0  0  0  0  0  0  0  0
    5.6527   12.7021    5.3631 H   0  0  0  0  0  0  0  0  0  0  0  0
   11.3233   10.9137    6.3570 H   0  0  0  0  0  0  0  0  0  0  0  0
   11.0633   10.0406    4.8088 H   0  0  0  0  0  0  0  0  0  0  0  0
   11.8566   11.6522    4.8088 H   0  0  0  0  0  0  0  0  0  0  0  0
   10.9508   12.2616    2.6054 H   0  0  0  0  0  0  0  0  0  0  0  0
    6.6661   12.7343    0.1112 H   0  0  0  0  0  0  0  0  0  0  0  0
    5.4375   14.0383   -1.6231 H   0  0  0  0  0  0  0  0  0  0  0  0
    5.3956   16.5315   -1.5130 H   0  0  0  0  0  0  0  0  0  0  0  0
    6.5777   17.7177    0.3348 H   0  0  0  0  0  0  0  0  0  0  0  0
    7.8030   16.4153    2.0726 H   0  0  0  0  0  0  0  0  0  0  0  0
  1  2  1  0  0  0  0
  1 31  1  0  0  0  0
  1 32  1  0  0  0  0
  1 33  1  0  0  0  0
  2  3  1  0  0  0  0
  2 34  1  0  0  0  0
  2 35  1  0  0  0  0
  3  4  1  0  0  0  0
  3 11  1  0  0  0  0
  4  5  1  0  0  0  0
  4 36  1  0  0  0  0
  4 37  1  0  0  0  0
  5  6  2  0  0  0  0
  6  7  1  0  0  0  0
  6 38  1  0  0  0  0
  7  8  2  0  0  0  0
  7 39  1  0  0  0  0
  8  9  1  0  0  0  0
  8 40  1  0  0  0  0
  9 10  2  0  0  0  0
  9 41  1  0  0  0  0
 10  5  1  0  0  0  0
 10 42  1  0  0  0  0
 11 12  2  0  0  0  0
 11 13  1  0  0  0  0
 13 14  1  0  0  0  0
 13 43  1  0  0  0  0
 13 44  1  0  0  0  0
 14 15  1  0  0  0  0
 15 16  2  0  0  0  0
 15 17  1  0  0  0  0
 17 18  1  0  0  0  0
 17 19  1  0  0  0  0
 18 45  1  0  0  0  0
 18 46  1  0  0  0  0
 18 47  1  0  0  0  0
 19 20  2  0  0  0  0
 20 21  1  0  0  0  0
 20 48  1  0  0  0  0
 21 22  2  0  0  0  0
 22 23  1  0  0  0  0
 22 29  1  0  0  0  0
 23 24  2  0  0  0  0
 24 25  1  0  0  0  0
 24 49  1  0  0  0  0
 25 26  2  0  0  0  0
 25 50  1  0  0  0  0
 26 27  1  0  0  0  0
 26 51  1  0  0  0  0
 27 28  2  0  0  0  0
 27 52  1  0  0  0  0
 28 23  1  0  0  0  0
 28 53  1  0  0  0  0
 29 30  2  0  0  0  0
 30 14  1  0  0  0  0
 30 19  1  0  0  0  0
M  END
>  <meeko>
{"is_sidechain": [false], "free_energy": -6.277, "intermolecular_energy": -8.846, "internal_energy": -1.426}

$$$$
