6433109
     RDKit          3D

 53 56  0  0  0  0  0  0  0  0999 V2000
   10.5320   12.1870    3.7760 O   0  0  0  0  0  0  0  0  0  0  0  0
    8.2520   12.8470    3.7310 O   0  0  0  0  0  0  0  0  0  0  0  0
    9.2310   12.4840    5.7400 N   0  0  0  0  0  0  0  0  0  0  0  0
    6.0160   13.4570    4.5850 N   0  0  0  0  0  0  0  0  0  0  0  0
    5.8650   13.4030    7.0160 N   0  0  0  0  0  0  0  0  0  0  0  0
    7.2920   13.0840    4.7310 N   0  0  0  0  0  0  0  0  0  0  0  0
    7.9020   12.8590    5.9510 N   0  0  0  0  0  0  0  0  0  0  0  0
    9.4830   12.4670    4.3390 C   0  0  0  0  0  0  0  0  0  0  0  0
   10.1880   12.1680    6.7690 C   0  0  0  0  0  0  0  0  0  0  0  0
    7.1600   13.0270    7.0870 C   0  0  0  0  0  0  0  0  0  0  0  0
    5.3680   13.5970    5.7650 C   0  0  0  0  0  0  0  0  0  0  0  0
    3.9860   13.9970    5.6890 C   0  0  0  0  0  0  0  0  0  0  0  0
    2.9940   13.0510    5.4150 C   0  0  0  0  0  0  0  0  0  0  0  0
    3.6290   15.3330    5.8920 C   0  0  0  0  0  0  0  0  0  0  0  0
    1.6560   13.4370    5.3440 C   0  0  0  0  0  0  0  0  0  0  0  0
    2.2900   15.7180    5.8200 C   0  0  0  0  0  0  0  0  0  0  0  0
    1.3030   14.7720    5.5470 C   0  0  0  0  0  0  0  0  0  0  0  0
    7.9810   12.9800    2.3240 C   0  0  0  0  0  0  0  0  0  0  0  0
    9.1710   15.0560    2.4620 C   0  0  0  0  0  0  0  0  0  0  0  0
    7.6570   14.8340    0.7180 C   0  0  0  0  0  0  0  0  0  0  0  0
    8.3350   14.3810    1.8560 C   0  0  0  0  0  0  0  0  0  0  0  0
    6.6720   14.0160    0.0200 C   0  0  0  0  0  0  0  0  0  0  0  0
    6.9810   13.9170   -1.4590 C   0  0  0  0  0  0  0  0  0  0  0  0
    7.8850   16.1590    0.1480 C   0  0  0  0  0  0  0  0  0  0  0  0
    6.7640   17.1060    0.4630 C   0  0  0  0  0  0  0  0  0  0  0  0
    6.7020   17.7060    1.7160 C   0  0  0  0  0  0  0  0  0  0  0  0
    5.7970   17.3730   -0.4990 C   0  0  0  0  0  0  0  0  0  0  0  0
    5.6610   18.5860    2.0100 C   0  0  0  0  0  0  0  0  0  0  0  0
    4.7550   18.2540   -0.2040 C   0  0  0  0  0  0  0  0  0  0  0  0
    4.6870   18.8590    1.0500 C   0  0  0  0  0  0  0  0  0  0  0  0
   10.1551   13.2257    3.9116 H   0  0  0  0  0  0  0  0  0  0  0  0
    9.8889   11.6911    3.6733 H   0  0  0  0  0  0  0  0  0  0  0  0
    3.2393   12.9303    4.3495 H   0  0  0  0  0  0  0  0  0  0  0  0
    2.5242   12.2004    5.9305 H   0  0  0  0  0  0  0  0  0  0  0  0
    2.7100   14.9032    5.4668 H   0  0  0  0  0  0  0  0  0  0  0  0
    3.0562   16.1616    6.3339 H   0  0  0  0  0  0  0  0  0  0  0  0
    1.4726   13.4362    6.4286 H   0  0  0  0  0  0  0  0  0  0  0  0
    1.2017   14.3331    4.8960 H   0  0  0  0  0  0  0  0  0  0  0  0
    1.2100   12.5368    4.8960 H   0  0  0  0  0  0  0  0  0  0  0  0
    1.3256   16.2297    5.6857 H   0  0  0  0  0  0  0  0  0  0  0  0
   10.0271   15.0132    3.1514 H   0  0  0  0  0  0  0  0  0  0  0  0
    9.1654   14.1570    1.8281 H   0  0  0  0  0  0  0  0  0  0  0  0
    9.2550   15.9511    1.8281 H   0  0  0  0  0  0  0  0  0  0  0  0
    9.3680   14.4461    2.2283 H   0  0  0  0  0  0  0  0  0  0  0  0
    6.8494   13.1650   -0.6541 H   0  0  0  0  0  0  0  0  0  0  0  0
    6.9379   13.1862   -2.2800 H   0  0  0  0  0  0  0  0  0  0  0  0
    8.9160   16.4570    0.3894 H   0  0  0  0  0  0  0  0  0  0  0  0
    6.8913   17.5265   -0.5455 H   0  0  0  0  0  0  0  0  0  0  0  0
    7.0424   18.3079    2.5715 H   0  0  0  0  0  0  0  0  0  0  0  0
    5.0995   18.2236   -0.5018 H   0  0  0  0  0  0  0  0  0  0  0  0
    5.8478   18.9114    3.0440 H   0  0  0  0  0  0  0  0  0  0  0  0
    4.3426   18.1032   -1.2125 H   0  0  0  0  0  0  0  0  0  0  0  0
    3.8649   19.5519    1.2824 H   0  0  0  0  0  0  0  0  0  0  0  0
  1 11  2  0
  2 12  2  0
  3  8  1  0
  3  9  1  0
  3 11  1  0
  4 10  1  0
  4 11  1  0
  4 15  1  0
  5 12  1  0
  5 13  1  0
  5 14  1  0
  6  9  1  0
  6 18  2  0
  7 16  2  0
  7 18  1  0
  8 12  1  0
  9 10  2  0
 10 16  1  0
 13 17  1  0
 14 19  1  0
 17 21  2  0
 17 22  1  0
 18 20  1  0
 20 25  2  0
 20 26  1  0
 21 23  1  0
 22 24  2  0
 23 27  2  0
 24 27  1  0
 25 28  1  0
 26 29  2  0
 28 30  2  0
 29 30  1  0
  8 31  1  0
  8 32  1  0
 13 33  1  0
 13 34  1  0
 14 35  1  0
 14 36  1  0
 15 37  1  0
 15 38  1  0
 15 39  1  0
 16 40  1  0
 19 41  1  0
 19 42  1  0
 19 43  1  0
 21 44  1  0
 22 45  1  0
 23 46  1  0
 24 47  1  0
 25 48  1  0
 26 49  1  0
 27 50  1  0
 28 51  1  0
 29 52  1  0
 30 53  1  0
M  END
>  <PUBCHEM_COMPOUND_CID>  (1) 
6433109

>  <PUBCHEM_CONFORMER_RMSD>  (1) 
0.8

>  <PUBCHEM_CONFORMER_DIVERSEORDER>  (1) 
1
224
406
428
419
136
137
352
112
360
403
282
448
148
133
400
300
335
169
347
420
272
107
345
117
456
394
462
266
357
99
92
203
103
182
81
106
118
375
51
101
398
293
465
8
417
423
391
144
307
338
254
350
219
275
83
278
384
263
373
468
355
451
110
243
25
241
135
427
367
326
79
399
418
346
105
387
145
239
111
267
292
265
84
340
72
150
431
415
104
295
376
356
329
296
120
205
16
410
187
446
41
404
271
452
362
18
303
460
332
168
206
439
221
122
397
223
284
463
374
392
288
232
298
94
449
443
459
217
240
358
62
291
366
234
365
70
52
273
455
432
215
67
437
214
257
302
274
283
378
349
59
149
78
5
141
49
71
450
311
268
371
186
396
191
68
331
370
249
228
159
124
304
259
333
139
121
389
226
258
247
100
290
155
315
277
264
438
327
230
385
324
163
237
330
116
177
435
297
380
393
409
115
109
87
74
429
82
320
322
414
430
190
334
323
147
348
321
341
407
60
129
126
48
363
294
319
281
183
151
390
201
211
412
454
31
166
10
165
57
444
440
208
218
426
178
269
91
152
279
88
40
127
305
188
424
134
77
316
354
39
197
229
287
270
248
359
172
7
162
113
64
458
132
416
246
153
464
336
174
66
209
256
238
467
161
351
233
361
164
364
421
200
160
383
445
442
123
328
170
195
343
244
46
55
154
199
157
372
44
14
212
179
310
379
3
245
377
301
4
47
436
196
202
344
65
401
146
37
30
26
317
242
119
143
369
213
276
285
12
309
102
411
97
45
280
192
250
185
231
216
184
220
75
342
9
252
194
128
461
289
42
413
235
158
313
386
24
227
181
388
434
402
6
114
325
425
405
2
222
251
261
262
260
167
337
98
225
466
299
193
204
21
381
353
339
286
207
93
189
61
17
33
433
457
318
180
236
175
314
53
130
63
453
95
441
11
86
382
36
255
54
312
253
69
27
125
38
395
28
73
131
96
22
447
408
368
56
171
140
34
198
142
306
308
89
422
50
85
13
58
19
32
173
90
80
176
76
35
43
15
156
210
20
29
138
108
23

>  <PUBCHEM_MMFF94_PARTIAL_CHARGES>  (1) 
39
1 -0.57
10 0.12
11 0.69
12 0.57
13 0.44
14 0.3
15 0.3
16 0.16
17 -0.14
18 0.62
2 -0.57
21 -0.15
22 -0.15
23 -0.15
24 -0.15
25 -0.15
26 -0.15
27 -0.15
28 -0.15
29 -0.15
3 -0.48
30 -0.15
37 0.15
4 -0.48
44 0.15
45 0.15
46 0.15
47 0.15
48 0.15
49 0.15
5 -0.66
50 0.15
51 0.15
52 0.15
53 0.15
6 -0.62
7 -0.62
8 0.36
9 0.43

>  <PUBCHEM_EFFECTIVE_ROTOR_COUNT>  (1) 
7

>  <PUBCHEM_PHARMACOPHORE_FEATURES>  (1) 
7
1 1 acceptor
1 2 acceptor
3 6 7 18 cation
5 3 4 9 10 11 rings
6 17 21 22 23 24 27 rings
6 20 25 26 28 29 30 rings
6 6 7 9 10 16 18 rings

>  <PUBCHEM_HEAVY_ATOM_COUNT>  (1) 
30

>  <PUBCHEM_ATOM_DEF_STEREO_COUNT>  (1) 
0

>  <PUBCHEM_ATOM_UDEF_STEREO_COUNT>  (1) 
0

>  <PUBCHEM_BOND_DEF_STEREO_COUNT>  (1) 
0

>  <PUBCHEM_BOND_UDEF_STEREO_COUNT>  (1) 
0

>  <PUBCHEM_ISOTOPIC_ATOM_COUNT>  (1) 
0

>  <PUBCHEM_COMPONENT_COUNT>  (1) 
1

>  <PUBCHEM_CACTVS_TAUTO_COUNT>  (1) 
1

>  <PUBCHEM_CONFORMER_ID>  (1) 
0062295500000001

>  <PUBCHEM_MMFF94_ENERGY>  (1) 
89.7493

>  <PUBCHEM_FEATURE_SELFOVERLAP>  (1) 
35.634

>  <PUBCHEM_SHAPE_FINGERPRINT>  (1) 
10928967 22 18338532939712705394
10940486 97 18263371287654066988
11014199 57 18338510958175891378
11552529 35 18411976945194083896
12218070 45 18264747927910620314
12788726 201 18267035018762914863
13631057 29 18268148837359608276
138480 1 16178759638084926379
14100547 121 18267017267494197513
14866123 147 18269552754583582675
15230672 131 17762622785834130990
15250474 111 18408605872739676886
15297060 5 17697592191571492426
15320294 125 17538554419036435346
15403338 16 16303165126897916715
15484559 13 15293194410357736204
16110190 28 18120083980373875298
16728300 4 18042127562234120139
17818456 19 18338800017868855654
19319366 153 17613721839889169846
20764821 26 17545876032347639518
20775530 9 18265884929342389362
21133410 171 17545262771253262738
21703447 108 17696185194919262985
229767 44 18049997797187769954
23516275 137 17328616941567384370
23559900 14 17407121423487248903
4017518 198 17835793102011304270
463206 1 17975130151961068546
508706 21 18128534864740407854
5265222 85 18051702049211986260
5309563 4 17907858761971829527
5385378 56 17261879845483627553
56633871 153 18412833499338784827
613672 6 18052790801366534495

>  <PUBCHEM_SHAPE_MULTIPOLES>  (1) 
580.74
10.31
7.31
1.46
6.79
1.8
0.28
7.19
-0.63
-6.69
0.49
1.62
-0.47
-4.47

>  <PUBCHEM_SHAPE_SELFOVERLAP>  (1) 
1261.711

>  <PUBCHEM_SHAPE_VOLUME>  (1) 
313.3

>  <PUBCHEM_COORDINATE_TYPE>  (1) 
2
5
10

$$$$
