A3_fine14_out
     RDKit          3D

 56 59  0  0  0  0  0  0  0  0999 V2000
    3.8660   17.8340    8.0120 C   0  0  0  0  0  0  0  0  0  0  0  0
    3.5520   16.4790    8.6270 C   0  0  0  0  0  0  0  0  0  0  0  0
    4.3180   15.4050    7.9980 N   0  0  0  0  0  0  0  0  0  0  0  0
    4.3380   15.3800    6.5350 C   0  0  0  0  0  0  0  0  0  0  0  0
    3.0860   14.7420    5.9750 C   0  0  0  0  0  0  0  0  0  0  0  0
    3.0390   13.3570    5.7470 C   0  0  0  0  0  0  0  0  0  0  0  0
    1.8900   12.7620    5.2240 C   0  0  0  0  0  0  0  0  0  0  0  0
    0.7760   13.5440    4.9240 C   0  0  0  0  0  0  0  0  0  0  0  0
    0.8100   14.9190    5.1470 C   0  0  0  0  0  0  0  0  0  0  0  0
    1.9580   15.5160    5.6700 C   0  0  0  0  0  0  0  0  0  0  0  0
    4.9440   14.3650    8.6780 C   0  0  0  0  0  0  0  0  0  0  0  0
    4.2940   13.4460    9.1890 O   0  0  0  0  0  0  0  0  0  0  0  0
    6.4700   14.3620    8.8090 C   0  0  0  0  0  0  0  0  0  0  0  0
    7.0450   13.1100    8.3830 N   0  0  0  0  0  0  0  0  0  0  0  0
    7.5610   12.1210    9.2390 C   0  0  0  0  0  0  0  0  0  0  0  0
    7.4940   12.0730   10.4540 O   0  0  0  0  0  0  0  0  0  0  0  0
    8.2010   11.1750    8.4120 N   0  0  0  0  0  0  0  0  0  0  0  0
    8.9720   10.0530    8.9020 C   0  0  0  0  0  0  0  0  0  0  0  0
    8.4150    8.6880    8.5110 C   0  0  0  0  0  0  0  0  0  0  0  0
    7.0650    8.7300    8.4420 F   0  0  0  0  0  0  0  0  0  0  0  0
    8.8650    8.3230    7.2880 F   0  0  0  0  0  0  0  0  0  0  0  0
    8.7550    7.7190    9.3830 F   0  0  0  0  0  0  0  0  0  0  0  0
    8.1760   11.6610    7.1030 C   0  0  0  0  0  0  0  0  0  0  0  0
    8.6980   11.2290    5.9250 C   0  0  0  0  0  0  0  0  0  0  0  0
    8.5220   11.9410    4.7910 N   0  0  0  0  0  0  0  0  0  0  0  0
    7.8210   13.1080    4.8680 C   0  0  0  0  0  0  0  0  0  0  0  0
    7.6290   13.8780    3.6210 C   0  0  0  0  0  0  0  0  0  0  0  0
    7.7080   13.2620    2.3560 C   0  0  0  0  0  0  0  0  0  0  0  0
    7.5240   13.9880    1.1750 C   0  0  0  0  0  0  0  0  0  0  0  0
    7.2550   15.3520    1.2290 C   0  0  0  0  0  0  0  0  0  0  0  0
    7.1700   15.9890    2.4630 C   0  0  0  0  0  0  0  0  0  0  0  0
    7.3540   15.2600    3.6420 C   0  0  0  0  0  0  0  0  0  0  0  0
    7.2800   13.6080    6.0020 N   0  0  0  0  0  0  0  0  0  0  0  0
    7.4800   12.8510    7.0780 C   0  0  0  0  0  0  0  0  0  0  0  0
    4.0364   18.5693    8.8122 H   0  0  0  0  0  0  0  0  0  0  0  0
    4.7693   17.7537    7.3895 H   0  0  0  0  0  0  0  0  0  0  0  0
    3.0194   18.1592    7.3895 H   0  0  0  0  0  0  0  0  0  0  0  0
    3.7965   16.5096    9.6990 H   0  0  0  0  0  0  0  0  0  0  0  0
    2.4830   16.2726    8.4702 H   0  0  0  0  0  0  0  0  0  0  0  0
    4.4117   16.4117    6.1607 H   0  0  0  0  0  0  0  0  0  0  0  0
    5.2039   14.7837    6.2115 H   0  0  0  0  0  0  0  0  0  0  0  0
    3.9156   12.7357    5.9827 H   0  0  0  0  0  0  0  0  0  0  0  0
    1.8636   11.6764    5.0486 H   0  0  0  0  0  0  0  0  0  0  0  0
   -0.1298   13.0758    4.5113 H   0  0  0  0  0  0  0  0  0  0  0  0
   -0.0699   15.5353    4.9103 H   0  0  0  0  0  0  0  0  0  0  0  0
    1.9777   16.6020    5.8441 H   0  0  0  0  0  0  0  0  0  0  0  0
    6.8816   15.1716    8.1883 H   0  0  0  0  0  0  0  0  0  0  0  0
    6.7208   14.5082    9.8700 H   0  0  0  0  0  0  0  0  0  0  0  0
    9.9930   10.1358    8.5012 H   0  0  0  0  0  0  0  0  0  0  0  0
    8.9375   10.1037   10.0003 H   0  0  0  0  0  0  0  0  0  0  0  0
    9.2698   10.2897    5.8948 H   0  0  0  0  0  0  0  0  0  0  0  0
    7.9195   12.1842    2.2961 H   0  0  0  0  0  0  0  0  0  0  0  0
    7.5921   13.4798    0.2018 H   0  0  0  0  0  0  0  0  0  0  0  0
    7.1102   15.9240    0.3006 H   0  0  0  0  0  0  0  0  0  0  0  0
    6.9578   17.0673    2.5112 H   0  0  0  0  0  0  0  0  0  0  0  0
    7.2823   15.7780    4.6097 H   0  0  0  0  0  0  0  0  0  0  0  0
  1  2  1  0
  2  3  1  0
  3  4  1  0
  4  5  1  0
  5  6  2  0
  6  7  1  0
  7  8  2  0
  8  9  1  0
  9 10  2  0
  3 11  1  0
 11 12  2  0
 11 13  1  0
 13 14  1  0
 14 15  1  0
 15 16  2  0
 15 17  1  0
 17 18  1  0
 18 19  1  0
 19 20  1  0
 19 21  1  0
 19 22  1  0
 17 23  1  0
 23 24  2  0
 24 25  1  0
 25 26  2  0
 26 27  1  0
 27 28  2  0
 28 29  1  0
 29 30  2  0
 30 31  1  0
 31 32  2  0
 26 33  1  0
 33 34  2  0
 10  5  1  0
 34 14  1  0
 34 23  1  0
 32 27  1  0
  1 35  1  0
  1 36  1  0
  1 37  1  0
  2 38  1  0
  2 39  1  0
  4 40  1  0
  4 41  1  0
  6 42  1  0
  7 43  1  0
  8 44  1  0
  9 45  1  0
 10 46  1  0
 13 47  1  0
 13 48  1  0
 18 49  1  0
 18 50  1  0
 24 51  1  0
 28 52  1  0
 29 53  1  0
 30 54  1  0
 31 55  1  0
 32 56  1  0
M  END
>  <meeko>  (1) 
{"is_sidechain": [false], "free_energy": -6.33, "intermolecular_energy": -9.66, "internal_energy": -1.858}

$$$$
A3_fine14_out
     RDKit          3D

 56 59  0  0  0  0  0  0  0  0999 V2000
    4.0820   17.9120    7.5950 C   0  0  0  0  0  0  0  0  0  0  0  0
    3.7960   16.6550    8.4010 C   0  0  0  0  0  0  0  0  0  0  0  0
    4.4310   15.4770    7.8140 N   0  0  0  0  0  0  0  0  0  0  0  0
    4.4030   15.3720    6.3540 C   0  0  0  0  0  0  0  0  0  0  0  0
    3.1380   14.6990    5.8720 C   0  0  0  0  0  0  0  0  0  0  0  0
    1.9810   15.4570    5.6300 C   0  0  0  0  0  0  0  0  0  0  0  0
    0.8070   14.8420    5.1920 C   0  0  0  0  0  0  0  0  0  0  0  0
    0.7770   13.4640    4.9910 C   0  0  0  0  0  0  0  0  0  0  0  0
    1.9190   12.7000    5.2270 C   0  0  0  0  0  0  0  0  0  0  0  0
    3.0940   13.3130    5.6650 C   0  0  0  0  0  0  0  0  0  0  0  0
    4.9700   14.4160    8.5350 C   0  0  0  0  0  0  0  0  0  0  0  0
    4.2550   13.5120    8.9830 O   0  0  0  0  0  0  0  0  0  0  0  0
    6.4790   14.3700    8.7920 C   0  0  0  0  0  0  0  0  0  0  0  0
    7.0570   13.1130    8.3850 N   0  0  0  0  0  0  0  0  0  0  0  0
    7.5610   12.1320    9.2560 C   0  0  0  0  0  0  0  0  0  0  0  0
    7.4790   12.0950   10.4710 O   0  0  0  0  0  0  0  0  0  0  0  0
    8.2100   11.1770    8.4460 N   0  0  0  0  0  0  0  0  0  0  0  0
    8.9730   10.0590    8.9560 C   0  0  0  0  0  0  0  0  0  0  0  0
    8.3860    8.6910    8.6230 C   0  0  0  0  0  0  0  0  0  0  0  0
    7.0340    8.7300    8.6800 F   0  0  0  0  0  0  0  0  0  0  0  0
    8.7200    8.3240    7.3640 F   0  0  0  0  0  0  0  0  0  0  0  0
    8.8080    7.7260    9.4620 F   0  0  0  0  0  0  0  0  0  0  0  0
    8.2030   11.6510    7.1330 C   0  0  0  0  0  0  0  0  0  0  0  0
    8.7390   11.2080    5.9660 C   0  0  0  0  0  0  0  0  0  0  0  0
    8.5780   11.9100    4.8230 N   0  0  0  0  0  0  0  0  0  0  0  0
    7.8780   13.0780    4.8810 C   0  0  0  0  0  0  0  0  0  0  0  0
    7.7020   13.8370    3.6240 C   0  0  0  0  0  0  0  0  0  0  0  0
    7.4300   15.2190    3.6300 C   0  0  0  0  0  0  0  0  0  0  0  0
    7.2650   15.9380    2.4420 C   0  0  0  0  0  0  0  0  0  0  0  0
    7.3700   15.2920    1.2150 C   0  0  0  0  0  0  0  0  0  0  0  0
    7.6390   13.9280    1.1750 C   0  0  0  0  0  0  0  0  0  0  0  0
    7.8030   13.2110    2.3650 C   0  0  0  0  0  0  0  0  0  0  0  0
    7.3230   13.5890    6.0020 N   0  0  0  0  0  0  0  0  0  0  0  0
    7.5090   12.8410    7.0890 C   0  0  0  0  0  0  0  0  0  0  0  0
    4.2730   18.7513    8.2800 H   0  0  0  0  0  0  0  0  0  0  0  0
    4.9657   17.7478    6.9609 H   0  0  0  0  0  0  0  0  0  0  0  0
    3.2142   18.1464    6.9609 H   0  0  0  0  0  0  0  0  0  0  0  0
    4.1780   16.7931    9.4233 H   0  0  0  0  0  0  0  0  0  0  0  0
    2.7083   16.4911    8.4038 H   0  0  0  0  0  0  0  0  0  0  0  0
    4.4577   16.3820    5.9217 H   0  0  0  0  0  0  0  0  0  0  0  0
    5.2616   14.7629    6.0349 H   0  0  0  0  0  0  0  0  0  0  0  0
    2.0000   16.5456    5.7871 H   0  0  0  0  0  0  0  0  0  0  0  0
   -0.0938   15.4451    5.0057 H   0  0  0  0  0  0  0  0  0  0  0  0
   -0.1478   12.9786    4.6460 H   0  0  0  0  0  0  0  0  0  0  0  0
    1.8940   11.6119    5.0677 H   0  0  0  0  0  0  0  0  0  0  0  0
    3.9917   12.7045    5.8490 H   0  0  0  0  0  0  0  0  0  0  0  0
    6.9606   15.1820    8.2274 H   0  0  0  0  0  0  0  0  0  0  0  0
    6.6438   14.4861    9.8734 H   0  0  0  0  0  0  0  0  0  0  0  0
    9.9861   10.1114    8.5307 H   0  0  0  0  0  0  0  0  0  0  0  0
    8.9630   10.1463   10.0525 H   0  0  0  0  0  0  0  0  0  0  0  0
    9.3100   10.2679    5.9515 H   0  0  0  0  0  0  0  0  0  0  0  0
    7.3453   15.7453    4.5922 H   0  0  0  0  0  0  0  0  0  0  0  0
    7.0518   17.0165    2.4781 H   0  0  0  0  0  0  0  0  0  0  0  0
    7.2409   15.8573    0.2802 H   0  0  0  0  0  0  0  0  0  0  0  0
    7.7229   13.4126    0.2069 H   0  0  0  0  0  0  0  0  0  0  0  0
    8.0159   12.1329    2.3171 H   0  0  0  0  0  0  0  0  0  0  0  0
  1  2  1  0
  2  3  1  0
  3  4  1  0
  4  5  1  0
  5  6  2  0
  6  7  1  0
  7  8  2  0
  8  9  1  0
  9 10  2  0
  3 11  1  0
 11 12  2  0
 11 13  1  0
 13 14  1  0
 14 15  1  0
 15 16  2  0
 15 17  1  0
 17 18  1  0
 18 19  1  0
 19 20  1  0
 19 21  1  0
 19 22  1  0
 17 23  1  0
 23 24  2  0
 24 25  1  0
 25 26  2  0
 26 27  1  0
 27 28  2  0
 28 29  1  0
 29 30  2  0
 30 31  1  0
 31 32  2  0
 26 33  1  0
 33 34  2  0
 10  5  1  0
 34 14  1  0
 34 23  1  0
 32 27  1  0
  1 35  1  0
  1 36  1  0
  1 37  1  0
  2 38  1  0
  2 39  1  0
  4 40  1  0
  4 41  1  0
  6 42  1  0
  7 43  1  0
  8 44  1  0
  9 45  1  0
 10 46  1  0
 13 47  1  0
 13 48  1  0
 18 49  1  0
 18 50  1  0
 24 51  1  0
 28 52  1  0
 29 53  1  0
 30 54  1  0
 31 55  1  0
 32 56  1  0
M  END
>  <meeko>  (2) 
{"is_sidechain": [false], "free_energy": -6.313, "intermolecular_energy": -9.652, "internal_energy": -1.84}

$$$$
A3_fine14_out
     RDKit          3D

 56 59  0  0  0  0  0  0  0  0999 V2000
    3.0670   16.5950    8.9980 C   0  0  0  0  0  0  0  0  0  0  0  0
    4.2770   16.6930    8.0810 C   0  0  0  0  0  0  0  0  0  0  0  0
    4.7250   15.3770    7.6300 N   0  0  0  0  0  0  0  0  0  0  0  0
    4.6610   15.1180    6.1900 C   0  0  0  0  0  0  0  0  0  0  0  0
    3.3120   14.5670    5.7860 C   0  0  0  0  0  0  0  0  0  0  0  0
    2.2270   15.4340    5.5820 C   0  0  0  0  0  0  0  0  0  0  0  0
    0.9770   14.9330    5.2160 C   0  0  0  0  0  0  0  0  0  0  0  0
    0.7980   13.5610    5.0500 C   0  0  0  0  0  0  0  0  0  0  0  0
    1.8680   12.6900    5.2490 C   0  0  0  0  0  0  0  0  0  0  0  0
    3.1190   13.1890    5.6140 C   0  0  0  0  0  0  0  0  0  0  0  0
    5.1120   14.3340    8.4650 C   0  0  0  0  0  0  0  0  0  0  0  0
    4.2860   13.5440    8.9340 O   0  0  0  0  0  0  0  0  0  0  0  0
    6.5920   14.1670    8.8230 C   0  0  0  0  0  0  0  0  0  0  0  0
    7.0200   12.7940    8.7150 N   0  0  0  0  0  0  0  0  0  0  0  0
    7.2370   11.9240    9.7980 C   0  0  0  0  0  0  0  0  0  0  0  0
    6.9800   12.1130   10.9740 O   0  0  0  0  0  0  0  0  0  0  0  0
    7.8380   10.7670    9.2630 N   0  0  0  0  0  0  0  0  0  0  0  0
    8.3400    9.6660   10.0580 C   0  0  0  0  0  0  0  0  0  0  0  0
    7.4400    8.4350   10.0670 C   0  0  0  0  0  0  0  0  0  0  0  0
    6.4640    8.5690   10.9940 F   0  0  0  0  0  0  0  0  0  0  0  0
    6.8320    8.2810    8.8680 F   0  0  0  0  0  0  0  0  0  0  0  0
    8.1140    7.3000   10.3380 F   0  0  0  0  0  0  0  0  0  0  0  0
    8.0900   10.9980    7.9090 C   0  0  0  0  0  0  0  0  0  0  0  0
    8.7110   10.2910    6.9290 C   0  0  0  0  0  0  0  0  0  0  0  0
    8.8230   10.7950    5.6810 N   0  0  0  0  0  0  0  0  0  0  0  0
    8.3120   12.0360    5.4420 C   0  0  0  0  0  0  0  0  0  0  0  0
    8.4350   12.5770    4.0720 C   0  0  0  0  0  0  0  0  0  0  0  0
    9.6600   12.5510    3.3770 C   0  0  0  0  0  0  0  0  0  0  0  0
    9.7780   13.0610    2.0810 C   0  0  0  0  0  0  0  0  0  0  0  0
    8.6700   13.6110    1.4430 C   0  0  0  0  0  0  0  0  0  0  0  0
    7.4460   13.6510    2.1030 C   0  0  0  0  0  0  0  0  0  0  0  0
    7.3310   13.1400    3.4000 C   0  0  0  0  0  0  0  0  0  0  0  0
    7.6900   12.8040    6.3650 N   0  0  0  0  0  0  0  0  0  0  0  0
    7.6020   12.2420    7.5680 C   0  0  0  0  0  0  0  0  0  0  0  0
    3.3984   16.6218   10.0465 H   0  0  0  0  0  0  0  0  0  0  0  0
    2.3913   17.4414    8.8052 H   0  0  0  0  0  0  0  0  0  0  0  0
    2.5364   15.6509    8.8052 H   0  0  0  0  0  0  0  0  0  0  0  0
    4.0096   17.2984    7.2024 H   0  0  0  0  0  0  0  0  0  0  0  0
    5.0978   17.1579    8.6469 H   0  0  0  0  0  0  0  0  0  0  0  0
    4.8393   16.0591    5.6492 H   0  0  0  0  0  0  0  0  0  0  0  0
    5.4284   14.3710    5.9390 H   0  0  0  0  0  0  0  0  0  0  0  0
    2.3633   16.5178    5.7118 H   0  0  0  0  0  0  0  0  0  0  0  0
    0.1332   15.6209    5.0586 H   0  0  0  0  0  0  0  0  0  0  0  0
   -0.1872   13.1655    4.7621 H   0  0  0  0  0  0  0  0  0  0  0  0
    1.7259   11.6071    5.1180 H   0  0  0  0  0  0  0  0  0  0  0  0
    3.9596   12.4964    5.7679 H   0  0  0  0  0  0  0  0  0  0  0  0
    7.1949   14.7823    8.1390 H   0  0  0  0  0  0  0  0  0  0  0  0
    6.7281   14.4853    9.8671 H   0  0  0  0  0  0  0  0  0  0  0  0
    9.3215    9.3719    9.6578 H   0  0  0  0  0  0  0  0  0  0  0  0
    8.3911   10.0256   11.0963 H   0  0  0  0  0  0  0  0  0  0  0  0
    9.1268    9.2979    7.1543 H   0  0  0  0  0  0  0  0  0  0  0  0
   10.5454   12.1188    3.8662 H   0  0  0  0  0  0  0  0  0  0  0  0
   10.7485   13.0276    1.5642 H   0  0  0  0  0  0  0  0  0  0  0  0
    8.7616   14.0118    0.4227 H   0  0  0  0  0  0  0  0  0  0  0  0
    6.5671   14.0852    1.6040 H   0  0  0  0  0  0  0  0  0  0  0  0
    6.3559   13.1784    3.9077 H   0  0  0  0  0  0  0  0  0  0  0  0
  1  2  1  0
  2  3  1  0
  3  4  1  0
  4  5  1  0
  5  6  2  0
  6  7  1  0
  7  8  2  0
  8  9  1  0
  9 10  2  0
  3 11  1  0
 11 12  2  0
 11 13  1  0
 13 14  1  0
 14 15  1  0
 15 16  2  0
 15 17  1  0
 17 18  1  0
 18 19  1  0
 19 20  1  0
 19 21  1  0
 19 22  1  0
 17 23  1  0
 23 24  2  0
 24 25  1  0
 25 26  2  0
 26 27  1  0
 27 28  2  0
 28 29  1  0
 29 30  2  0
 30 31  1  0
 31 32  2  0
 26 33  1  0
 33 34  2  0
 10  5  1  0
 34 14  1  0
 34 23  1  0
 32 27  1  0
  1 35  1  0
  1 36  1  0
  1 37  1  0
  2 38  1  0
  2 39  1  0
  4 40  1  0
  4 41  1  0
  6 42  1  0
  7 43  1  0
  8 44  1  0
  9 45  1  0
 10 46  1  0
 13 47  1  0
 13 48  1  0
 18 49  1  0
 18 50  1  0
 24 51  1  0
 28 52  1  0
 29 53  1  0
 30 54  1  0
 31 55  1  0
 32 56  1  0
M  END
>  <meeko>  (3) 
{"is_sidechain": [false], "free_energy": -6.175, "intermolecular_energy": -9.608, "internal_energy": -1.673}

$$$$
A3_fine14_out
     RDKit          3D

 56 59  0  0  0  0  0  0  0  0999 V2000
    3.4390   14.7870    9.3570 C   0  0  0  0  0  0  0  0  0  0  0  0
    4.2930   13.7680    8.6170 C   0  0  0  0  0  0  0  0  0  0  0  0
    4.9700   14.3610    7.4650 N   0  0  0  0  0  0  0  0  0  0  0  0
    4.6700   13.7810    6.1550 C   0  0  0  0  0  0  0  0  0  0  0  0
    3.2220   13.9960    5.7730 C   0  0  0  0  0  0  0  0  0  0  0  0
    2.4050   12.9000    5.4530 C   0  0  0  0  0  0  0  0  0  0  0  0
    1.0710   13.0910    5.0930 C   0  0  0  0  0  0  0  0  0  0  0  0
    0.5380   14.3780    5.0480 C   0  0  0  0  0  0  0  0  0  0  0  0
    1.3390   15.4740    5.3640 C   0  0  0  0  0  0  0  0  0  0  0  0
    2.6750   15.2860    5.7250 C   0  0  0  0  0  0  0  0  0  0  0  0
    5.9370   15.3590    7.5320 C   0  0  0  0  0  0  0  0  0  0  0  0
    5.7030   16.5100    7.1470 O   0  0  0  0  0  0  0  0  0  0  0  0
    7.3270   15.0240    8.0820 C   0  0  0  0  0  0  0  0  0  0  0  0
    8.0610   14.1540    7.1960 N   0  0  0  0  0  0  0  0  0  0  0  0
    8.5100   14.4980    5.9090 C   0  0  0  0  0  0  0  0  0  0  0  0
    8.4910   15.5930    5.3770 O   0  0  0  0  0  0  0  0  0  0  0  0
    8.9880   13.3070    5.3240 N   0  0  0  0  0  0  0  0  0  0  0  0
    9.4300   13.1940    3.9510 C   0  0  0  0  0  0  0  0  0  0  0  0
    8.3040   13.0100    2.9390 C   0  0  0  0  0  0  0  0  0  0  0  0
    7.7050   14.1940    2.6770 F   0  0  0  0  0  0  0  0  0  0  0  0
    8.7900   12.5420    1.7660 F   0  0  0  0  0  0  0  0  0  0  0  0
    7.3570   12.1530    3.3660 F   0  0  0  0  0  0  0  0  0  0  0  0
    8.7080   12.2550    6.1980 C   0  0  0  0  0  0  0  0  0  0  0  0
    8.8580   10.9070    6.1320 C   0  0  0  0  0  0  0  0  0  0  0  0
    8.4650   10.1180    7.1560 N   0  0  0  0  0  0  0  0  0  0  0  0
    7.9010   10.7140    8.2450 C   0  0  0  0  0  0  0  0  0  0  0  0
    7.4780    9.8440    9.3630 C   0  0  0  0  0  0  0  0  0  0  0  0
    6.9950   10.3810   10.5720 C   0  0  0  0  0  0  0  0  0  0  0  0
    6.5940    9.5600   11.6300 C   0  0  0  0  0  0  0  0  0  0  0  0
    6.6640    8.1760   11.5040 C   0  0  0  0  0  0  0  0  0  0  0  0
    7.1360    7.6150   10.3220 C   0  0  0  0  0  0  0  0  0  0  0  0
    7.5380    8.4390    9.2660 C   0  0  0  0  0  0  0  0  0  0  0  0
    7.7080   12.0450    8.3810 N   0  0  0  0  0  0  0  0  0  0  0  0
    8.1300   12.7640    7.3420 C   0  0  0  0  0  0  0  0  0  0  0  0
    3.5572   14.6460   10.4415 H   0  0  0  0  0  0  0  0  0  0  0  0
    3.7596   15.8027    9.0822 H   0  0  0  0  0  0  0  0  0  0  0  0
    2.3829   14.6489    9.0822 H   0  0  0  0  0  0  0  0  0  0  0  0
    5.0500   13.3689    9.3082 H   0  0  0  0  0  0  0  0  0  0  0  0
    3.6314   12.9691    8.2508 H   0  0  0  0  0  0  0  0  0  0  0  0
    5.3134   14.2541    5.3986 H   0  0  0  0  0  0  0  0  0  0  0  0
    4.8569   12.6982    6.2055 H   0  0  0  0  0  0  0  0  0  0  0  0
    2.8204   11.8820    5.4865 H   0  0  0  0  0  0  0  0  0  0  0  0
    0.4393   12.2254    4.8445 H   0  0  0  0  0  0  0  0  0  0  0  0
   -0.5138   14.5286    4.7634 H   0  0  0  0  0  0  0  0  0  0  0  0
    0.9179   16.4896    5.3290 H   0  0  0  0  0  0  0  0  0  0  0  0
    3.3018   16.1552    5.9731 H   0  0  0  0  0  0  0  0  0  0  0  0
    7.8927   15.9584    8.2120 H   0  0  0  0  0  0  0  0  0  0  0  0
    7.1971   14.5022    9.0416 H   0  0  0  0  0  0  0  0  0  0  0  0
    9.9803   14.1101    3.6904 H   0  0  0  0  0  0  0  0  0  0  0  0
   10.0526   12.2888    3.8955 H   0  0  0  0  0  0  0  0  0  0  0  0
    9.3043   10.4525    5.2352 H   0  0  0  0  0  0  0  0  0  0  0  0
    6.9317   11.4732   10.6866 H   0  0  0  0  0  0  0  0  0  0  0  0
    6.2227   10.0086   12.5632 H   0  0  0  0  0  0  0  0  0  0  0  0
    6.3476    7.5287   12.3352 H   0  0  0  0  0  0  0  0  0  0  0  0
    7.1932    6.5215   10.2177 H   0  0  0  0  0  0  0  0  0  0  0  0
    7.9097    7.9800    8.3380 H   0  0  0  0  0  0  0  0  0  0  0  0
  1  2  1  0
  2  3  1  0
  3  4  1  0
  4  5  1  0
  5  6  2  0
  6  7  1  0
  7  8  2  0
  8  9  1  0
  9 10  2  0
  3 11  1  0
 11 12  2  0
 11 13  1  0
 13 14  1  0
 14 15  1  0
 15 16  2  0
 15 17  1  0
 17 18  1  0
 18 19  1  0
 19 20  1  0
 19 21  1  0
 19 22  1  0
 17 23  1  0
 23 24  2  0
 24 25  1  0
 25 26  2  0
 26 27  1  0
 27 28  2  0
 28 29  1  0
 29 30  2  0
 30 31  1  0
 31 32  2  0
 26 33  1  0
 33 34  2  0
 10  5  1  0
 34 14  1  0
 34 23  1  0
 32 27  1  0
  1 35  1  0
  1 36  1  0
  1 37  1  0
  2 38  1  0
  2 39  1  0
  4 40  1  0
  4 41  1  0
  6 42  1  0
  7 43  1  0
  8 44  1  0
  9 45  1  0
 10 46  1  0
 13 47  1  0
 13 48  1  0
 18 49  1  0
 18 50  1  0
 24 51  1  0
 28 52  1  0
 29 53  1  0
 30 54  1  0
 31 55  1  0
 32 56  1  0
M  END
>  <meeko>  (4) 
{"is_sidechain": [false], "free_energy": -6.025, "intermolecular_energy": -8.942, "internal_energy": -2.111}

$$$$
A3_fine14_out
     RDKit          3D

 56 59  0  0  0  0  0  0  0  0999 V2000
    3.9970   13.6480    9.3180 C   0  0  0  0  0  0  0  0  0  0  0  0
    4.1380   14.9650    8.5690 C   0  0  0  0  0  0  0  0  0  0  0  0
    4.9850   14.8280    7.3850 N   0  0  0  0  0  0  0  0  0  0  0  0
    4.4600   15.3750    6.1330 C   0  0  0  0  0  0  0  0  0  0  0  0
    3.1480   14.7260    5.7520 C   0  0  0  0  0  0  0  0  0  0  0  0
    2.0020   15.5130    5.5530 C   0  0  0  0  0  0  0  0  0  0  0  0
    0.7860   14.9210    5.2100 C   0  0  0  0  0  0  0  0  0  0  0  0
    0.7010   13.5380    5.0610 C   0  0  0  0  0  0  0  0  0  0  0  0
    1.8320   12.7470    5.2550 C   0  0  0  0  0  0  0  0  0  0  0  0
    3.0500   13.3370    5.5990 C   0  0  0  0  0  0  0  0  0  0  0  0
    6.1940   14.1410    7.3420 C   0  0  0  0  0  0  0  0  0  0  0  0
    7.1070   14.3940    8.1360 O   0  0  0  0  0  0  0  0  0  0  0  0
    6.4070   13.0570    6.2810 C   0  0  0  0  0  0  0  0  0  0  0  0
    7.7890   12.9590    5.8820 N   0  0  0  0  0  0  0  0  0  0  0  0
    8.3810   13.6680    4.8220 C   0  0  0  0  0  0  0  0  0  0  0  0
    7.8950   14.5670    4.1600 O   0  0  0  0  0  0  0  0  0  0  0  0
    9.6700   13.1240    4.6510 N   0  0  0  0  0  0  0  0  0  0  0  0
   10.5730   13.4880    3.5810 C   0  0  0  0  0  0  0  0  0  0  0  0
   10.4040   12.6660    2.3070 C   0  0  0  0  0  0  0  0  0  0  0  0
    9.0970   12.3840    2.0970 F   0  0  0  0  0  0  0  0  0  0  0  0
   10.8380   13.3630    1.2310 F   0  0  0  0  0  0  0  0  0  0  0  0
   11.0780   11.5010    2.3450 F   0  0  0  0  0  0  0  0  0  0  0  0
    9.7920   12.0270    5.5070 C   0  0  0  0  0  0  0  0  0  0  0  0
   10.7540   11.0900    5.7110 C   0  0  0  0  0  0  0  0  0  0  0  0
   10.5770   10.1070    6.6210 N   0  0  0  0  0  0  0  0  0  0  0  0
    9.4020   10.0750    7.3100 C   0  0  0  0  0  0  0  0  0  0  0  0
    9.2200    8.9990    8.3070 C   0  0  0  0  0  0  0  0  0  0  0  0
   10.2570    8.0960    8.6140 C   0  0  0  0  0  0  0  0  0  0  0  0
   10.0870    7.0780    9.5570 C   0  0  0  0  0  0  0  0  0  0  0  0
    8.8720    6.9380   10.2210 C   0  0  0  0  0  0  0  0  0  0  0  0
    7.8290    7.8140    9.9410 C   0  0  0  0  0  0  0  0  0  0  0  0
    8.0020    8.8310    8.9960 C   0  0  0  0  0  0  0  0  0  0  0  0
    8.3940   10.9630    7.1570 N   0  0  0  0  0  0  0  0  0  0  0  0
    8.6400   11.9120    6.2560 C   0  0  0  0  0  0  0  0  0  0  0  0
    4.0174   13.8382   10.4012 H   0  0  0  0  0  0  0  0  0  0  0  0
    3.0428   13.1725    9.0471 H   0  0  0  0  0  0  0  0  0  0  0  0
    4.8289   12.9812    9.0471 H   0  0  0  0  0  0  0  0  0  0  0  0
    3.1399   15.3050    8.2555 H   0  0  0  0  0  0  0  0  0  0  0  0
    4.6097   15.6939    9.2445 H   0  0  0  0  0  0  0  0  0  0  0  0
    4.3019   16.4568    6.2540 H   0  0  0  0  0  0  0  0  0  0  0  0
    5.1897   15.1729    5.3351 H   0  0  0  0  0  0  0  0  0  0  0  0
    2.0636   16.6052    5.6685 H   0  0  0  0  0  0  0  0  0  0  0  0
   -0.1060   15.5462    5.0571 H   0  0  0  0  0  0  0  0  0  0  0  0
   -0.2576   13.0712    4.7906 H   0  0  0  0  0  0  0  0  0  0  0  0
    1.7650   11.6554    5.1369 H   0  0  0  0  0  0  0  0  0  0  0  0
    3.9386   12.7067    5.7509 H   0  0  0  0  0  0  0  0  0  0  0  0
    6.0862   12.0887    6.6926 H   0  0  0  0  0  0  0  0  0  0  0  0
    5.8146   13.3270    5.3943 H   0  0  0  0  0  0  0  0  0  0  0  0
   10.4035   14.5461    3.3328 H   0  0  0  0  0  0  0  0  0  0  0  0
   11.5910   13.2916    3.9487 H   0  0  0  0  0  0  0  0  0  0  0  0
   11.6867   11.1319    5.1294 H   0  0  0  0  0  0  0  0  0  0  0  0
   11.2241    8.1944    8.0991 H   0  0  0  0  0  0  0  0  0  0  0  0
   10.9146    6.3868    9.7744 H   0  0  0  0  0  0  0  0  0  0  0  0
    8.7373    6.1380   10.9639 H   0  0  0  0  0  0  0  0  0  0  0  0
    6.8667    7.7072   10.4632 H   0  0  0  0  0  0  0  0  0  0  0  0
    7.1674    9.5160    8.7857 H   0  0  0  0  0  0  0  0  0  0  0  0
  1  2  1  0
  2  3  1  0
  3  4  1  0
  4  5  1  0
  5  6  2  0
  6  7  1  0
  7  8  2  0
  8  9  1  0
  9 10  2  0
  3 11  1  0
 11 12  2  0
 11 13  1  0
 13 14  1  0
 14 15  1  0
 15 16  2  0
 15 17  1  0
 17 18  1  0
 18 19  1  0
 19 20  1  0
 19 21  1  0
 19 22  1  0
 17 23  1  0
 23 24  2  0
 24 25  1  0
 25 26  2  0
 26 27  1  0
 27 28  2  0
 28 29  1  0
 29 30  2  0
 30 31  1  0
 31 32  2  0
 26 33  1  0
 33 34  2  0
 10  5  1  0
 34 14  1  0
 34 23  1  0
 32 27  1  0
  1 35  1  0
  1 36  1  0
  1 37  1  0
  2 38  1  0
  2 39  1  0
  4 40  1  0
  4 41  1  0
  6 42  1  0
  7 43  1  0
  8 44  1  0
  9 45  1  0
 10 46  1  0
 13 47  1  0
 13 48  1  0
 18 49  1  0
 18 50  1  0
 24 51  1  0
 28 52  1  0
 29 53  1  0
 30 54  1  0
 31 55  1  0
 32 56  1  0
M  END
>  <meeko>  (5) 
{"is_sidechain": [false], "free_energy": -5.992, "intermolecular_energy": -9.496, "internal_energy": -1.506}

$$$$
A3_fine14_out
     RDKit          3D

 56 59  0  0  0  0  0  0  0  0999 V2000
   10.8500   12.7650    1.9930 C   0  0  0  0  0  0  0  0  0  0  0  0
   10.4340   13.8010    3.0250 C   0  0  0  0  0  0  0  0  0  0  0  0
    9.0510   14.2350    2.8330 N   0  0  0  0  0  0  0  0  0  0  0  0
    8.8130   15.6790    2.7940 C   0  0  0  0  0  0  0  0  0  0  0  0
    8.0360   16.1440    4.0050 C   0  0  0  0  0  0  0  0  0  0  0  0
    8.6680   16.2490    5.2540 C   0  0  0  0  0  0  0  0  0  0  0  0
    7.9560   16.6700    6.3780 C   0  0  0  0  0  0  0  0  0  0  0  0
    6.6050   16.9920    6.2660 C   0  0  0  0  0  0  0  0  0  0  0  0
    5.9660   16.8930    5.0310 C   0  0  0  0  0  0  0  0  0  0  0  0
    6.6760   16.4720    3.9060 C   0  0  0  0  0  0  0  0  0  0  0  0
    7.9480   13.3890    2.7810 C   0  0  0  0  0  0  0  0  0  0  0  0
    7.0560   13.5440    1.9400 O   0  0  0  0  0  0  0  0  0  0  0  0
    7.8270   12.2470    3.7950 C   0  0  0  0  0  0  0  0  0  0  0  0
    7.8590   12.7280    5.1540 N   0  0  0  0  0  0  0  0  0  0  0  0
    8.9190   12.5380    6.0580 C   0  0  0  0  0  0  0  0  0  0  0  0
   10.0220   12.0750    5.8310 O   0  0  0  0  0  0  0  0  0  0  0  0
    8.4540   12.9800    7.3130 N   0  0  0  0  0  0  0  0  0  0  0  0
    9.1930   12.8460    8.5500 C   0  0  0  0  0  0  0  0  0  0  0  0
    8.8310   11.6120    9.3690 C   0  0  0  0  0  0  0  0  0  0  0  0
    9.8980   11.1910   10.0870 F   0  0  0  0  0  0  0  0  0  0  0  0
    7.8460   11.8990   10.2520 F   0  0  0  0  0  0  0  0  0  0  0  0
    8.4160   10.5830    8.6050 F   0  0  0  0  0  0  0  0  0  0  0  0
    7.1020   13.3050    7.1820 C   0  0  0  0  0  0  0  0  0  0  0  0
    6.1360   13.6980    8.0530 C   0  0  0  0  0  0  0  0  0  0  0  0
    4.8750   13.9270    7.6260 N   0  0  0  0  0  0  0  0  0  0  0  0
    4.6010   13.7360    6.3050 C   0  0  0  0  0  0  0  0  0  0  0  0
    3.2180   13.9940    5.8460 C   0  0  0  0  0  0  0  0  0  0  0  0
    2.3810   12.9490    5.4090 C   0  0  0  0  0  0  0  0  0  0  0  0
    1.0740   13.1900    4.9760 C   0  0  0  0  0  0  0  0  0  0  0  0
    0.5690   14.4870    4.9710 C   0  0  0  0  0  0  0  0  0  0  0  0
    1.3710   15.5400    5.3980 C   0  0  0  0  0  0  0  0  0  0  0  0
    2.6790   15.2950    5.8290 C   0  0  0  0  0  0  0  0  0  0  0  0
    5.5020   13.3370    5.3800 N   0  0  0  0  0  0  0  0  0  0  0  0
    6.7270   13.1430    5.8650 C   0  0  0  0  0  0  0  0  0  0  0  0
   11.2127   11.8619    2.5057 H   0  0  0  0  0  0  0  0  0  0  0  0
    9.9857   12.5071    1.3633 H   0  0  0  0  0  0  0  0  0  0  0  0
   11.6526   13.1765    1.3633 H   0  0  0  0  0  0  0  0  0  0  0  0
   10.5334   13.3629    4.0291 H   0  0  0  0  0  0  0  0  0  0  0  0
   11.0866   14.6790    2.9098 H   0  0  0  0  0  0  0  0  0  0  0  0
    9.7812   16.2005    2.7683 H   0  0  0  0  0  0  0  0  0  0  0  0
    8.2218   15.9078    1.8951 H   0  0  0  0  0  0  0  0  0  0  0  0
    9.7346   15.9970    5.3477 H   0  0  0  0  0  0  0  0  0  0  0  0
    8.4612   16.7476    7.3520 H   0  0  0  0  0  0  0  0  0  0  0  0
    6.0431   17.3241    7.1514 H   0  0  0  0  0  0  0  0  0  0  0  0
    4.8994   17.1474    4.9432 H   0  0  0  0  0  0  0  0  0  0  0  0
    6.1654   16.3968    2.9346 H   0  0  0  0  0  0  0  0  0  0  0  0
    6.8757   11.7212    3.6263 H   0  0  0  0  0  0  0  0  0  0  0  0
    8.6841   11.5725    3.6522 H   0  0  0  0  0  0  0  0  0  0  0  0
   10.2646   12.7954    8.3069 H   0  0  0  0  0  0  0  0  0  0  0  0
    8.9341   13.7193    9.1667 H   0  0  0  0  0  0  0  0  0  0  0  0
    6.3833   13.8310    9.1166 H   0  0  0  0  0  0  0  0  0  0  0  0
    2.7651   11.9182    5.4084 H   0  0  0  0  0  0  0  0  0  0  0  0
    0.4439   12.3538    4.6388 H   0  0  0  0  0  0  0  0  0  0  0  0
   -0.4595   14.6783    4.6310 H   0  0  0  0  0  0  0  0  0  0  0  0
    0.9762   16.5667    5.3968 H   0  0  0  0  0  0  0  0  0  0  0  0
    3.3013   16.1385    6.1626 H   0  0  0  0  0  0  0  0  0  0  0  0
  1  2  1  0
  2  3  1  0
  3  4  1  0
  4  5  1  0
  5  6  2  0
  6  7  1  0
  7  8  2  0
  8  9  1  0
  9 10  2  0
  3 11  1  0
 11 12  2  0
 11 13  1  0
 13 14  1  0
 14 15  1  0
 15 16  2  0
 15 17  1  0
 17 18  1  0
 18 19  1  0
 19 20  1  0
 19 21  1  0
 19 22  1  0
 17 23  1  0
 23 24  2  0
 24 25  1  0
 25 26  2  0
 26 27  1  0
 27 28  2  0
 28 29  1  0
 29 30  2  0
 30 31  1  0
 31 32  2  0
 26 33  1  0
 33 34  2  0
 10  5  1  0
 34 14  1  0
 34 23  1  0
 32 27  1  0
  1 35  1  0
  1 36  1  0
  1 37  1  0
  2 38  1  0
  2 39  1  0
  4 40  1  0
  4 41  1  0
  6 42  1  0
  7 43  1  0
  8 44  1  0
  9 45  1  0
 10 46  1  0
 13 47  1  0
 13 48  1  0
 18 49  1  0
 18 50  1  0
 24 51  1  0
 28 52  1  0
 29 53  1  0
 30 54  1  0
 31 55  1  0
 32 56  1  0
M  END
>  <meeko>  (6) 
{"is_sidechain": [false], "free_energy": -5.915, "intermolecular_energy": -8.066, "internal_energy": -2.819}

$$$$
A3_fine14_out
     RDKit          3D

 56 59  0  0  0  0  0  0  0  0999 V2000
   -1.7650   19.0400    6.0430 C   0  0  0  0  0  0  0  0  0  0  0  0
   -1.1140   17.7740    6.5800 C   0  0  0  0  0  0  0  0  0  0  0  0
   -0.0200   17.3200    5.7240 N   0  0  0  0  0  0  0  0  0  0  0  0
   -0.2560   16.1050    4.9420 C   0  0  0  0  0  0  0  0  0  0  0  0
    0.3310   14.8870    5.6210 C   0  0  0  0  0  0  0  0  0  0  0  0
    1.3650   14.1640    5.0050 C   0  0  0  0  0  0  0  0  0  0  0  0
    1.9060   13.0340    5.6220 C   0  0  0  0  0  0  0  0  0  0  0  0
    1.4210   12.6170    6.8600 C   0  0  0  0  0  0  0  0  0  0  0  0
    0.3950   13.3280    7.4820 C   0  0  0  0  0  0  0  0  0  0  0  0
   -0.1470   14.4580    6.8670 C   0  0  0  0  0  0  0  0  0  0  0  0
    1.2450   17.8960    5.6700 C   0  0  0  0  0  0  0  0  0  0  0  0
    1.8360   18.0550    4.5960 O   0  0  0  0  0  0  0  0  0  0  0  0
    1.9290   18.3320    6.9700 C   0  0  0  0  0  0  0  0  0  0  0  0
    2.0500   17.2420    7.9060 N   0  0  0  0  0  0  0  0  0  0  0  0
    1.4980   17.2170    9.1980 C   0  0  0  0  0  0  0  0  0  0  0  0
    0.7260   18.0160    9.6990 O   0  0  0  0  0  0  0  0  0  0  0  0
    2.0250   16.0740    9.8340 N   0  0  0  0  0  0  0  0  0  0  0  0
    1.8070   15.7410   11.2250 C   0  0  0  0  0  0  0  0  0  0  0  0
    0.4370   15.1390   11.5210 C   0  0  0  0  0  0  0  0  0  0  0  0
   -0.3990   16.0830   12.0090 F   0  0  0  0  0  0  0  0  0  0  0  0
   -0.1250   14.6570   10.3870 F   0  0  0  0  0  0  0  0  0  0  0  0
    0.4930   14.1330   12.4150 F   0  0  0  0  0  0  0  0  0  0  0  0
    2.9720   15.5050    8.9800 C   0  0  0  0  0  0  0  0  0  0  0  0
    3.8380   14.4640    9.0890 C   0  0  0  0  0  0  0  0  0  0  0  0
    4.6720   14.1520    8.0730 N   0  0  0  0  0  0  0  0  0  0  0  0
    4.6290   14.9210    6.9490 C   0  0  0  0  0  0  0  0  0  0  0  0
    5.5430   14.5680    5.8400 C   0  0  0  0  0  0  0  0  0  0  0  0
    6.2010   15.5590    5.0860 C   0  0  0  0  0  0  0  0  0  0  0  0
    7.0660   15.2280    4.0390 C   0  0  0  0  0  0  0  0  0  0  0  0
    7.2970   13.8940    3.7200 C   0  0  0  0  0  0  0  0  0  0  0  0
    6.6620   12.8920    4.4470 C   0  0  0  0  0  0  0  0  0  0  0  0
    5.7970   13.2270    5.4930 C   0  0  0  0  0  0  0  0  0  0  0  0
    3.8050   15.9770    6.7680 N   0  0  0  0  0  0  0  0  0  0  0  0
    3.0010   16.2200    7.8020 C   0  0  0  0  0  0  0  0  0  0  0  0
   -2.0893   19.6706    6.8839 H   0  0  0  0  0  0  0  0  0  0  0  0
   -1.0395   19.5931    5.4284 H   0  0  0  0  0  0  0  0  0  0  0  0
   -2.6369   18.7716    5.4284 H   0  0  0  0  0  0  0  0  0  0  0  0
   -0.7181   17.9767    7.5861 H   0  0  0  0  0  0  0  0  0  0  0  0
   -1.8774   16.9825    6.6070 H   0  0  0  0  0  0  0  0  0  0  0  0
   -1.3401   15.9608    4.8237 H   0  0  0  0  0  0  0  0  0  0  0  0
    0.2319   16.2238    3.9633 H   0  0  0  0  0  0  0  0  0  0  0  0
    1.7521   14.4903    4.0284 H   0  0  0  0  0  0  0  0  0  0  0  0
    2.7148   12.4732    5.1308 H   0  0  0  0  0  0  0  0  0  0  0  0
    1.8473   11.7273    7.3465 H   0  0  0  0  0  0  0  0  0  0  0  0
    0.0122   12.9978    8.4589 H   0  0  0  0  0  0  0  0  0  0  0  0
   -0.9548   15.0156    7.3636 H   0  0  0  0  0  0  0  0  0  0  0  0
    2.9343   18.7106    6.7332 H   0  0  0  0  0  0  0  0  0  0  0  0
    1.3102   19.1135    7.4351 H   0  0  0  0  0  0  0  0  0  0  0  0
    2.5751   15.0148   11.5295 H   0  0  0  0  0  0  0  0  0  0  0  0
    1.8633   16.6851   11.7866 H   0  0  0  0  0  0  0  0  0  0  0  0
    3.8604   13.8690   10.0139 H   0  0  0  0  0  0  0  0  0  0  0  0
    6.0302   16.6187    5.3267 H   0  0  0  0  0  0  0  0  0  0  0  0
    7.5648   16.0238    3.4664 H   0  0  0  0  0  0  0  0  0  0  0  0
    7.9784   13.6325    2.8970 H   0  0  0  0  0  0  0  0  0  0  0  0
    6.8407   11.8354    4.1986 H   0  0  0  0  0  0  0  0  0  0  0  0
    5.3027   12.4235    6.0588 H   0  0  0  0  0  0  0  0  0  0  0  0
  1  2  1  0
  2  3  1  0
  3  4  1  0
  4  5  1  0
  5  6  2  0
  6  7  1  0
  7  8  2  0
  8  9  1  0
  9 10  2  0
  3 11  1  0
 11 12  2  0
 11 13  1  0
 13 14  1  0
 14 15  1  0
 15 16  2  0
 15 17  1  0
 17 18  1  0
 18 19  1  0
 19 20  1  0
 19 21  1  0
 19 22  1  0
 17 23  1  0
 23 24  2  0
 24 25  1  0
 25 26  2  0
 26 27  1  0
 27 28  2  0
 28 29  1  0
 29 30  2  0
 30 31  1  0
 31 32  2  0
 26 33  1  0
 33 34  2  0
 10  5  1  0
 34 14  1  0
 34 23  1  0
 32 27  1  0
  1 35  1  0
  1 36  1  0
  1 37  1  0
  2 38  1  0
  2 39  1  0
  4 40  1  0
  4 41  1  0
  6 42  1  0
  7 43  1  0
  8 44  1  0
  9 45  1  0
 10 46  1  0
 13 47  1  0
 13 48  1  0
 18 49  1  0
 18 50  1  0
 24 51  1  0
 28 52  1  0
 29 53  1  0
 30 54  1  0
 31 55  1  0
 32 56  1  0
M  END
>  <meeko>  (7) 
{"is_sidechain": [false], "free_energy": -5.898, "intermolecular_energy": -7.891, "internal_energy": -2.968}

$$$$
A3_fine14_out
     RDKit          3D

 56 59  0  0  0  0  0  0  0  0999 V2000
    2.3820   13.0650   12.9090 C   0  0  0  0  0  0  0  0  0  0  0  0
    3.1080   14.1540   12.1340 C   0  0  0  0  0  0  0  0  0  0  0  0
    3.7690   13.6240   10.9420 N   0  0  0  0  0  0  0  0  0  0  0  0
    2.9100   13.3070    9.8000 C   0  0  0  0  0  0  0  0  0  0  0  0
    2.0580   14.4910    9.4010 C   0  0  0  0  0  0  0  0  0  0  0  0
    0.7120   14.3070    9.0480 C   0  0  0  0  0  0  0  0  0  0  0  0
   -0.0780   15.3940    8.6720 C   0  0  0  0  0  0  0  0  0  0  0  0
    0.4680   16.6760    8.6450 C   0  0  0  0  0  0  0  0  0  0  0  0
    1.8030   16.8720    8.9950 C   0  0  0  0  0  0  0  0  0  0  0  0
    2.5950   15.7860    9.3710 C   0  0  0  0  0  0  0  0  0  0  0  0
    5.1220   13.3160   10.8480 C   0  0  0  0  0  0  0  0  0  0  0  0
    5.5970   12.3230   11.4100 O   0  0  0  0  0  0  0  0  0  0  0  0
    6.0480   14.2320   10.0430 C   0  0  0  0  0  0  0  0  0  0  0  0
    6.5840   13.5680    8.8800 N   0  0  0  0  0  0  0  0  0  0  0  0
    7.9250   13.1820    8.7120 C   0  0  0  0  0  0  0  0  0  0  0  0
    8.8200   13.2040    9.5370 O   0  0  0  0  0  0  0  0  0  0  0  0
    8.0530   12.7650    7.3710 N   0  0  0  0  0  0  0  0  0  0  0  0
    9.3060   12.4000    6.7460 C   0  0  0  0  0  0  0  0  0  0  0  0
    9.5950   10.9030    6.7400 C   0  0  0  0  0  0  0  0  0  0  0  0
   10.4030   10.5810    5.7040 F   0  0  0  0  0  0  0  0  0  0  0  0
   10.2370   10.5370    7.8740 F   0  0  0  0  0  0  0  0  0  0  0  0
    8.4770   10.1580    6.6390 F   0  0  0  0  0  0  0  0  0  0  0  0
    6.8430   13.0220    6.7220 C   0  0  0  0  0  0  0  0  0  0  0  0
    6.4170   12.9070    5.4380 C   0  0  0  0  0  0  0  0  0  0  0  0
    5.1590   13.2620    5.0950 N   0  0  0  0  0  0  0  0  0  0  0  0
    4.3430   13.7530    6.0690 C   0  0  0  0  0  0  0  0  0  0  0  0
    2.9660   14.1340    5.6850 C   0  0  0  0  0  0  0  0  0  0  0  0
    2.5580   15.4820    5.6530 C   0  0  0  0  0  0  0  0  0  0  0  0
    1.2580   15.8450    5.2880 C   0  0  0  0  0  0  0  0  0  0  0  0
    0.3310   14.8660    4.9440 C   0  0  0  0  0  0  0  0  0  0  0  0
    0.7040   13.5260    4.9660 C   0  0  0  0  0  0  0  0  0  0  0  0
    2.0050   13.1660    5.3320 C   0  0  0  0  0  0  0  0  0  0  0  0
    4.6950   13.9060    7.3650 N   0  0  0  0  0  0  0  0  0  0  0  0
    5.9420   13.5240    7.6370 C   0  0  0  0  0  0  0  0  0  0  0  0
    2.5001   13.2422   13.9882 H   0  0  0  0  0  0  0  0  0  0  0  0
    1.3131   13.0809   12.6496 H   0  0  0  0  0  0  0  0  0  0  0  0
    2.8077   12.0845   12.6496 H   0  0  0  0  0  0  0  0  0  0  0  0
    2.3792   14.9184   11.8267 H   0  0  0  0  0  0  0  0  0  0  0  0
    3.8793   14.5839   12.7899 H   0  0  0  0  0  0  0  0  0  0  0  0
    3.5417   13.0178    8.9472 H   0  0  0  0  0  0  0  0  0  0  0  0
    2.2413   12.4830   10.0897 H   0  0  0  0  0  0  0  0  0  0  0  0
    0.2762   13.2972    9.0679 H   0  0  0  0  0  0  0  0  0  0  0  0
   -1.1317   15.2391    8.3969 H   0  0  0  0  0  0  0  0  0  0  0  0
   -0.1543   17.5329    8.3476 H   0  0  0  0  0  0  0  0  0  0  0  0
    2.2330   17.8843    8.9748 H   0  0  0  0  0  0  0  0  0  0  0  0
    3.6479   15.9471    9.6457 H   0  0  0  0  0  0  0  0  0  0  0  0
    5.4791   15.1153    9.7174 H   0  0  0  0  0  0  0  0  0  0  0  0
    6.8901   14.5187   10.6900 H   0  0  0  0  0  0  0  0  0  0  0  0
    9.2853   12.7504    5.7035 H   0  0  0  0  0  0  0  0  0  0  0  0
   10.1023   12.8708    7.3413 H   0  0  0  0  0  0  0  0  0  0  0  0
    7.1026   12.5210    4.6693 H   0  0  0  0  0  0  0  0  0  0  0  0
    3.2794   16.2678    5.9216 H   0  0  0  0  0  0  0  0  0  0  0  0
    0.9677   16.9059    5.2728 H   0  0  0  0  0  0  0  0  0  0  0  0
   -0.6919   15.1503    4.6560 H   0  0  0  0  0  0  0  0  0  0  0  0
   -0.0254   12.7484    4.6951 H   0  0  0  0  0  0  0  0  0  0  0  0
    2.2845   12.1022    5.3446 H   0  0  0  0  0  0  0  0  0  0  0  0
  1  2  1  0
  2  3  1  0
  3  4  1  0
  4  5  1  0
  5  6  2  0
  6  7  1  0
  7  8  2  0
  8  9  1  0
  9 10  2  0
  3 11  1  0
 11 12  2  0
 11 13  1  0
 13 14  1  0
 14 15  1  0
 15 16  2  0
 15 17  1  0
 17 18  1  0
 18 19  1  0
 19 20  1  0
 19 21  1  0
 19 22  1  0
 17 23  1  0
 23 24  2  0
 24 25  1  0
 25 26  2  0
 26 27  1  0
 27 28  2  0
 28 29  1  0
 29 30  2  0
 30 31  1  0
 31 32  2  0
 26 33  1  0
 33 34  2  0
 10  5  1  0
 34 14  1  0
 34 23  1  0
 32 27  1  0
  1 35  1  0
  1 36  1  0
  1 37  1  0
  2 38  1  0
  2 39  1  0
  4 40  1  0
  4 41  1  0
  6 42  1  0
  7 43  1  0
  8 44  1  0
  9 45  1  0
 10 46  1  0
 13 47  1  0
 13 48  1  0
 18 49  1  0
 18 50  1  0
 24 51  1  0
 28 52  1  0
 29 53  1  0
 30 54  1  0
 31 55  1  0
 32 56  1  0
M  END
>  <meeko>  (8) 
{"is_sidechain": [false], "free_energy": -5.633, "intermolecular_energy": -7.652, "internal_energy": -2.802}

$$$$
A3_fine14_out
     RDKit          3D

 56 59  0  0  0  0  0  0  0  0999 V2000
    3.9930   15.4550    6.2170 C   0  0  0  0  0  0  0  0  0  0  0  0
    4.1600   14.0170    6.6860 C   0  0  0  0  0  0  0  0  0  0  0  0
    4.1630   13.9190    8.1440 N   0  0  0  0  0  0  0  0  0  0  0  0
    3.1230   13.0860    8.7500 C   0  0  0  0  0  0  0  0  0  0  0  0
    1.7420   13.5220    8.3160 C   0  0  0  0  0  0  0  0  0  0  0  0
    1.2230   14.7540    8.7440 C   0  0  0  0  0  0  0  0  0  0  0  0
   -0.0540   15.1610    8.3540 C   0  0  0  0  0  0  0  0  0  0  0  0
   -0.8250   14.3410    7.5330 C   0  0  0  0  0  0  0  0  0  0  0  0
   -0.3210   13.1150    7.1010 C   0  0  0  0  0  0  0  0  0  0  0  0
    0.9560   12.7070    7.4900 C   0  0  0  0  0  0  0  0  0  0  0  0
    5.0120   14.6240    8.9920 C   0  0  0  0  0  0  0  0  0  0  0  0
    4.5700   15.3910    9.8540 O   0  0  0  0  0  0  0  0  0  0  0  0
    6.5280   14.4590    8.8470 C   0  0  0  0  0  0  0  0  0  0  0  0
    6.9190   13.0710    8.8340 N   0  0  0  0  0  0  0  0  0  0  0  0
    7.0880   12.2650    9.9740 C   0  0  0  0  0  0  0  0  0  0  0  0
    6.8100   12.5330   11.1290 O   0  0  0  0  0  0  0  0  0  0  0  0
    7.6670   11.0600    9.5260 N   0  0  0  0  0  0  0  0  0  0  0  0
    8.1190    9.9990   10.3990 C   0  0  0  0  0  0  0  0  0  0  0  0
    7.2120    8.7730   10.4230 C   0  0  0  0  0  0  0  0  0  0  0  0
    5.9220    9.1360   10.2370 F   0  0  0  0  0  0  0  0  0  0  0  0
    7.5350    7.9230    9.4200 F   0  0  0  0  0  0  0  0  0  0  0  0
    7.2870    8.0920   11.5820 F   0  0  0  0  0  0  0  0  0  0  0  0
    7.9560   11.2000    8.1670 C   0  0  0  0  0  0  0  0  0  0  0  0
    8.5780   10.4170    7.2470 C   0  0  0  0  0  0  0  0  0  0  0  0
    8.7320   10.8390    5.9740 N   0  0  0  0  0  0  0  0  0  0  0  0
    8.2610   12.0750    5.6460 C   0  0  0  0  0  0  0  0  0  0  0  0
    8.4300   12.5270    4.2480 C   0  0  0  0  0  0  0  0  0  0  0  0
    7.3610   13.0870    3.5220 C   0  0  0  0  0  0  0  0  0  0  0  0
    7.5190   13.5160    2.2000 C   0  0  0  0  0  0  0  0  0  0  0  0
    8.7540   13.3960    1.5710 C   0  0  0  0  0  0  0  0  0  0  0  0
    9.8300   12.8480    2.2620 C   0  0  0  0  0  0  0  0  0  0  0  0
    9.6680   12.4200    3.5840 C   0  0  0  0  0  0  0  0  0  0  0  0
    7.6410   12.9160    6.5040 N   0  0  0  0  0  0  0  0  0  0  0  0
    7.5110   12.4330    7.7380 C   0  0  0  0  0  0  0  0  0  0  0  0
    3.9159   16.1190    7.0906 H   0  0  0  0  0  0  0  0  0  0  0  0
    4.8633   15.7464    5.6107 H   0  0  0  0  0  0  0  0  0  0  0  0
    3.0790   15.5391    5.6107 H   0  0  0  0  0  0  0  0  0  0  0  0
    3.3290   13.4146    6.2903 H   0  0  0  0  0  0  0  0  0  0  0  0
    5.1276   13.6468    6.3163 H   0  0  0  0  0  0  0  0  0  0  0  0
    3.2799   12.0406    8.4460 H   0  0  0  0  0  0  0  0  0  0  0  0
    3.1905   13.1899    9.8430 H   0  0  0  0  0  0  0  0  0  0  0  0
    1.8281   15.4046    9.3926 H   0  0  0  0  0  0  0  0  0  0  0  0
   -0.4513   16.1285    8.6947 H   0  0  0  0  0  0  0  0  0  0  0  0
   -1.8316   14.6609    7.2256 H   0  0  0  0  0  0  0  0  0  0  0  0
   -0.9305   12.4683    6.4527 H   0  0  0  0  0  0  0  0  0  0  0  0
    1.3483   11.7387    7.1457 H   0  0  0  0  0  0  0  0  0  0  0  0
    6.8482   14.9275    7.9047 H   0  0  0  0  0  0  0  0  0  0  0  0
    7.0076   14.9402    9.7121 H   0  0  0  0  0  0  0  0  0  0  0  0
    9.1180    9.6814   10.0656 H   0  0  0  0  0  0  0  0  0  0  0  0
    8.1179   10.4102   11.4193 H   0  0  0  0  0  0  0  0  0  0  0  0
    8.9601    9.4288    7.5427 H   0  0  0  0  0  0  0  0  0  0  0  0
    6.3785   13.1895    4.0060 H   0  0  0  0  0  0  0  0  0  0  0  0
    6.6657   13.9487    1.6572 H   0  0  0  0  0  0  0  0  0  0  0  0
    8.8793   13.7331    0.5314 H   0  0  0  0  0  0  0  0  0  0  0  0
   10.8084   12.7512    1.7687 H   0  0  0  0  0  0  0  0  0  0  0  0
   10.5280   11.9895    4.1180 H   0  0  0  0  0  0  0  0  0  0  0  0
  1  2  1  0
  2  3  1  0
  3  4  1  0
  4  5  1  0
  5  6  2  0
  6  7  1  0
  7  8  2  0
  8  9  1  0
  9 10  2  0
  3 11  1  0
 11 12  2  0
 11 13  1  0
 13 14  1  0
 14 15  1  0
 15 16  2  0
 15 17  1  0
 17 18  1  0
 18 19  1  0
 19 20  1  0
 19 21  1  0
 19 22  1  0
 17 23  1  0
 23 24  2  0
 24 25  1  0
 25 26  2  0
 26 27  1  0
 27 28  2  0
 28 29  1  0
 29 30  2  0
 30 31  1  0
 31 32  2  0
 26 33  1  0
 33 34  2  0
 10  5  1  0
 34 14  1  0
 34 23  1  0
 32 27  1  0
  1 35  1  0
  1 36  1  0
  1 37  1  0
  2 38  1  0
  2 39  1  0
  4 40  1  0
  4 41  1  0
  6 42  1  0
  7 43  1  0
  8 44  1  0
  9 45  1  0
 10 46  1  0
 13 47  1  0
 13 48  1  0
 18 49  1  0
 18 50  1  0
 24 51  1  0
 28 52  1  0
 29 53  1  0
 30 54  1  0
 31 55  1  0
 32 56  1  0
M  END
>  <meeko>  (9) 
{"is_sidechain": [false], "free_energy": -5.539, "intermolecular_energy": -8.369, "internal_energy": -1.942}

$$$$
A3_fine14_out
     RDKit          3D

 56 59  0  0  0  0  0  0  0  0999 V2000
    0.0920   18.2700    3.9500 C   0  0  0  0  0  0  0  0  0  0  0  0
    1.0300   18.2160    5.1460 C   0  0  0  0  0  0  0  0  0  0  0  0
    0.5560   17.2820    6.1660 N   0  0  0  0  0  0  0  0  0  0  0  0
   -0.2730   16.1670    5.7030 C   0  0  0  0  0  0  0  0  0  0  0  0
    0.3950   14.8350    5.9630 C   0  0  0  0  0  0  0  0  0  0  0  0
    1.5210   14.4520    5.2170 C   0  0  0  0  0  0  0  0  0  0  0  0
    2.1380   13.2210    5.4450 C   0  0  0  0  0  0  0  0  0  0  0  0
    1.6390   12.3620    6.4220 C   0  0  0  0  0  0  0  0  0  0  0  0
    0.5230   12.7320    7.1700 C   0  0  0  0  0  0  0  0  0  0  0  0
   -0.0970   13.9620    6.9430 C   0  0  0  0  0  0  0  0  0  0  0  0
    0.7530   17.4250    7.5360 C   0  0  0  0  0  0  0  0  0  0  0  0
   -0.1960   17.4310    8.3260 O   0  0  0  0  0  0  0  0  0  0  0  0
    2.1760   17.5920    8.0770 C   0  0  0  0  0  0  0  0  0  0  0  0
    2.7420   16.3360    8.5020 N   0  0  0  0  0  0  0  0  0  0  0  0
    2.5400   15.7380    9.7580 C   0  0  0  0  0  0  0  0  0  0  0  0
    1.7690   16.0810   10.6350 O   0  0  0  0  0  0  0  0  0  0  0  0
    3.4290   14.6450    9.8250 N   0  0  0  0  0  0  0  0  0  0  0  0
    3.6300   13.8290   11.0030 C   0  0  0  0  0  0  0  0  0  0  0  0
    3.4220   12.3350   10.7770 C   0  0  0  0  0  0  0  0  0  0  0  0
    2.6900   12.1230    9.6590 F   0  0  0  0  0  0  0  0  0  0  0  0
    4.6100   11.7110   10.6000 F   0  0  0  0  0  0  0  0  0  0  0  0
    2.7890   11.7370   11.8050 F   0  0  0  0  0  0  0  0  0  0  0  0
    4.2330   14.6730    8.6830 C   0  0  0  0  0  0  0  0  0  0  0  0
    5.2920   13.9380    8.2560 C   0  0  0  0  0  0  0  0  0  0  0  0
    5.8980   14.2190    7.0820 N   0  0  0  0  0  0  0  0  0  0  0  0
    5.4250   15.2690    6.3520 C   0  0  0  0  0  0  0  0  0  0  0  0
    6.0910   15.5670    5.0660 C   0  0  0  0  0  0  0  0  0  0  0  0
    6.8050   14.5780    4.3610 C   0  0  0  0  0  0  0  0  0  0  0  0
    7.4340   14.8570    3.1430 C   0  0  0  0  0  0  0  0  0  0  0  0
    7.3640   16.1360    2.5980 C   0  0  0  0  0  0  0  0  0  0  0  0
    6.6650   17.1340    3.2700 C   0  0  0  0  0  0  0  0  0  0  0  0
    6.0380   16.8510    4.4880 C   0  0  0  0  0  0  0  0  0  0  0  0
    4.3850   16.0530    6.7130 N   0  0  0  0  0  0  0  0  0  0  0  0
    3.8260   15.7120    7.8730 C   0  0  0  0  0  0  0  0  0  0  0  0
   -0.9483   18.3299    4.3023 H   0  0  0  0  0  0  0  0  0  0  0  0
    0.3246   19.1562    3.3413 H   0  0  0  0  0  0  0  0  0  0  0  0
    0.2213   17.3629    3.3413 H   0  0  0  0  0  0  0  0  0  0  0  0
    2.0249   17.8949    4.8040 H   0  0  0  0  0  0  0  0  0  0  0  0
    1.0709   19.2198    5.5941 H   0  0  0  0  0  0  0  0  0  0  0  0
   -1.2364   16.1934    6.2333 H   0  0  0  0  0  0  0  0  0  0  0  0
   -0.4205   16.2735    4.6181 H   0  0  0  0  0  0  0  0  0  0  0  0
    1.9203   15.1278    4.4464 H   0  0  0  0  0  0  0  0  0  0  0  0
    3.0182   12.9290    4.8534 H   0  0  0  0  0  0  0  0  0  0  0  0
    2.1258   11.3923    6.6028 H   0  0  0  0  0  0  0  0  0  0  0  0
    0.1297   12.0533    7.9411 H   0  0  0  0  0  0  0  0  0  0  0  0
   -0.9775   14.2480    7.5372 H   0  0  0  0  0  0  0  0  0  0  0  0
    2.8097   18.0174    7.2848 H   0  0  0  0  0  0  0  0  0  0  0  0
    2.1317   18.2583    8.9511 H   0  0  0  0  0  0  0  0  0  0  0  0
    4.6600   13.9834   11.3569 H   0  0  0  0  0  0  0  0  0  0  0  0
    2.8731   14.1442   11.7363 H   0  0  0  0  0  0  0  0  0  0  0  0
    5.6602   13.1049    8.8727 H   0  0  0  0  0  0  0  0  0  0  0  0
    6.8694   13.5622    4.7782 H   0  0  0  0  0  0  0  0  0  0  0  0
    7.9847   14.0645    2.6151 H   0  0  0  0  0  0  0  0  0  0  0  0
    7.8589   16.3567    1.6407 H   0  0  0  0  0  0  0  0  0  0  0  0
    6.6054   18.1461    2.8432 H   0  0  0  0  0  0  0  0  0  0  0  0
    5.4899   17.6508    5.0076 H   0  0  0  0  0  0  0  0  0  0  0  0
  1  2  1  0
  2  3  1  0
  3  4  1  0
  4  5  1  0
  5  6  2  0
  6  7  1  0
  7  8  2  0
  8  9  1  0
  9 10  2  0
  3 11  1  0
 11 12  2  0
 11 13  1  0
 13 14  1  0
 14 15  1  0
 15 16  2  0
 15 17  1  0
 17 18  1  0
 18 19  1  0
 19 20  1  0
 19 21  1  0
 19 22  1  0
 17 23  1  0
 23 24  2  0
 24 25  1  0
 25 26  2  0
 26 27  1  0
 27 28  2  0
 28 29  1  0
 29 30  2  0
 30 31  1  0
 31 32  2  0
 26 33  1  0
 33 34  2  0
 10  5  1  0
 34 14  1  0
 34 23  1  0
 32 27  1  0
  1 35  1  0
  1 36  1  0
  1 37  1  0
  2 38  1  0
  2 39  1  0
  4 40  1  0
  4 41  1  0
  6 42  1  0
  7 43  1  0
  8 44  1  0
  9 45  1  0
 10 46  1  0
 13 47  1  0
 13 48  1  0
 18 49  1  0
 18 50  1  0
 24 51  1  0
 28 52  1  0
 29 53  1  0
 30 54  1  0
 31 55  1  0
 32 56  1  0
M  END
>  <meeko>  (10) 
{"is_sidechain": [false], "free_energy": -5.509, "intermolecular_energy": -7.761, "internal_energy": -2.505}

$$$$
