
     RDKit          3D

 56 59  0  0  0  0  0  0  0  0999 V2000
   -0.8391   -3.1150    1.3376 C   0  0  0  0  0  0  0  0  0  0  0  0
   -1.2516   -1.6989    0.9664 C   0  0  0  0  0  0  0  0  0  0  0  0
   -2.1352   -1.6788   -0.1991 N   0  0  0  0  0  0  0  0  0  0  0  0
   -1.7113   -1.6835   -1.5245 C   0  0  0  0  0  0  0  0  0  0  0  0
   -2.4956   -1.9102   -2.4515 O   0  0  0  0  0  0  0  0  0  0  0  0
   -0.2367   -1.4141   -1.8429 C   0  0  0  0  0  0  0  0  0  0  0  0
    0.1316   -0.0470   -1.5697 N   0  0  0  0  0  0  0  0  0  0  0  0
    1.2616    0.3284   -0.8344 C   0  0  0  0  0  0  0  0  0  0  0  0
    2.0590   -0.4712   -0.1268 N   0  0  0  0  0  0  0  0  0  0  0  0
    3.0816    0.1697    0.4815 C   0  0  0  0  0  0  0  0  0  0  0  0
    3.3182    1.5104    0.3988 N   0  0  0  0  0  0  0  0  0  0  0  0
    2.4767    2.2590   -0.3474 C   0  0  0  0  0  0  0  0  0  0  0  0
    1.4187    1.6903   -0.9813 C   0  0  0  0  0  0  0  0  0  0  0  0
    0.4109    2.1760   -1.8163 N   0  0  0  0  0  0  0  0  0  0  0  0
   -0.3563    1.0777   -2.2569 C   0  0  0  0  0  0  0  0  0  0  0  0
   -1.2513    1.1221   -3.0818 O   0  0  0  0  0  0  0  0  0  0  0  0
    0.3147    3.5114   -2.3665 C   0  0  0  0  0  0  0  0  0  0  0  0
    1.1806    3.7482   -3.5987 C   0  0  0  0  0  0  0  0  0  0  0  0
    0.9768    4.9928   -4.0884 F   0  0  0  0  0  0  0  0  0  0  0  0
    2.4944    3.6545   -3.2826 F   0  0  0  0  0  0  0  0  0  0  0  0
    0.9301    2.8685   -4.5877 F   0  0  0  0  0  0  0  0  0  0  0  0
    4.0045   -0.6406    1.3042 C   0  0  0  0  0  0  0  0  0  0  0  0
    5.0864   -0.0552    1.9906 C   0  0  0  0  0  0  0  0  0  0  0  0
    5.9593   -0.8203    2.7714 C   0  0  0  0  0  0  0  0  0  0  0  0
    5.7706   -2.1940    2.8847 C   0  0  0  0  0  0  0  0  0  0  0  0
    4.7116   -2.8024    2.2185 C   0  0  0  0  0  0  0  0  0  0  0  0
    3.8408   -2.0340    1.4387 C   0  0  0  0  0  0  0  0  0  0  0  0
   -3.5728   -1.7611    0.0630 C   0  0  0  0  0  0  0  0  0  0  0  0
   -4.1458   -0.4107    0.4321 C   0  0  0  0  0  0  0  0  0  0  0  0
   -4.2106    0.6150   -0.5237 C   0  0  0  0  0  0  0  0  0  0  0  0
   -4.7305    1.8656   -0.1886 C   0  0  0  0  0  0  0  0  0  0  0  0
   -5.1920    2.1050    1.1041 C   0  0  0  0  0  0  0  0  0  0  0  0
   -5.1342    1.0943    2.0623 C   0  0  0  0  0  0  0  0  0  0  0  0
   -4.6142   -0.1581    1.7292 C   0  0  0  0  0  0  0  0  0  0  0  0
   -1.7114   -3.7266    1.5893 H   0  0  0  0  0  0  0  0  0  0  0  0
   -0.1712   -3.1006    2.2044 H   0  0  0  0  0  0  0  0  0  0  0  0
   -0.3159   -3.6066    0.5114 H   0  0  0  0  0  0  0  0  0  0  0  0
   -0.3593   -1.1097    0.7730 H   0  0  0  0  0  0  0  0  0  0  0  0
   -1.7598   -1.2235    1.8120 H   0  0  0  0  0  0  0  0  0  0  0  0
    0.3921   -2.1193   -1.2919 H   0  0  0  0  0  0  0  0  0  0  0  0
   -0.0835   -1.5949   -2.9133 H   0  0  0  0  0  0  0  0  0  0  0  0
    2.7061    3.3157   -0.4029 H   0  0  0  0  0  0  0  0  0  0  0  0
   -0.7321    3.6843   -2.6409 H   0  0  0  0  0  0  0  0  0  0  0  0
    0.5689    4.2325   -1.5822 H   0  0  0  0  0  0  0  0  0  0  0  0
    5.2604    1.0177    1.9203 H   0  0  0  0  0  0  0  0  0  0  0  0
    6.7858   -0.3394    3.2884 H   0  0  0  0  0  0  0  0  0  0  0  0
    6.4489   -2.7896    3.4901 H   0  0  0  0  0  0  0  0  0  0  0  0
    4.5610   -3.8758    2.3016 H   0  0  0  0  0  0  0  0  0  0  0  0
    3.0231   -2.5393    0.9273 H   0  0  0  0  0  0  0  0  0  0  0  0
   -4.1180   -2.1416   -0.8083 H   0  0  0  0  0  0  0  0  0  0  0  0
   -3.7375   -2.4905    0.8650 H   0  0  0  0  0  0  0  0  0  0  0  0
   -3.8553    0.4402   -1.5393 H   0  0  0  0  0  0  0  0  0  0  0  0
   -4.7777    2.6488   -0.9406 H   0  0  0  0  0  0  0  0  0  0  0  0
   -5.6004    3.0781    1.3632 H   0  0  0  0  0  0  0  0  0  0  0  0
   -5.4973    1.2810    3.0696 H   0  0  0  0  0  0  0  0  0  0  0  0
   -4.5776   -0.9348    2.4892 H   0  0  0  0  0  0  0  0  0  0  0  0
  1  2  1  0
  2  3  1  0
  3  4  1  0
  4  5  2  0
  4  6  1  0
  6  7  1  0
  7  8  1  0
  8  9  2  0
  9 10  1  0
 10 11  2  0
 11 12  1  0
 12 13  2  0
 13 14  1  0
 14 15  1  0
 15 16  2  0
 14 17  1  0
 17 18  1  0
 18 19  1  0
 18 20  1  0
 18 21  1  0
 10 22  1  0
 22 23  2  0
 23 24  1  0
 24 25  2  0
 25 26  1  0
 26 27  2  0
  3 28  1  0
 28 29  1  0
 29 30  2  0
 30 31  1  0
 31 32  2  0
 32 33  1  0
 33 34  2  0
 15  7  1  0
 27 22  1  0
 34 29  1  0
 13  8  1  0
  1 35  1  0
  1 36  1  0
  1 37  1  0
  2 38  1  0
  2 39  1  0
  6 40  1  0
  6 41  1  0
 12 42  1  0
 17 43  1  0
 17 44  1  0
 23 45  1  0
 24 46  1  0
 25 47  1  0
 26 48  1  0
 27 49  1  0
 28 50  1  0
 28 51  1  0
 30 52  1  0
 31 53  1  0
 32 54  1  0
 33 55  1  0
 34 56  1  0
M  END
$$$$
