A3_fine14_out
 OpenBabel07262615253D

 56 59  0  0  0  0  0  0  0  0999 V2000
    3.8660   17.8340    8.0120 C   0  0  0  0  0  0  0  0  0  0  0  0
    3.5520   16.4790    8.6270 C   0  0  0  0  0  0  0  0  0  0  0  0
    4.3180   15.4050    7.9980 N   0  0  0  0  0  0  0  0  0  0  0  0
    4.3380   15.3800    6.5350 C   0  0  0  0  0  0  0  0  0  0  0  0
    3.0860   14.7420    5.9750 C   0  0  0  0  0  0  0  0  0  0  0  0
    3.0390   13.3570    5.7470 C   0  0  0  0  0  0  0  0  0  0  0  0
    1.8900   12.7620    5.2240 C   0  0  0  0  0  0  0  0  0  0  0  0
    0.7760   13.5440    4.9240 C   0  0  0  0  0  0  0  0  0  0  0  0
    0.8100   14.9190    5.1470 C   0  0  0  0  0  0  0  0  0  0  0  0
    1.9580   15.5160    5.6700 C   0  0  0  0  0  0  0  0  0  0  0  0
    4.9440   14.3650    8.6780 C   0  0  0  0  0  0  0  0  0  0  0  0
    4.2940   13.4460    9.1890 O   0  0  0  0  0  0  0  0  0  0  0  0
    6.4700   14.3620    8.8090 C   0  0  0  0  0  0  0  0  0  0  0  0
    7.0450   13.1100    8.3830 N   0  0  0  0  0  0  0  0  0  0  0  0
    7.5610   12.1210    9.2390 C   0  0  0  0  0  0  0  0  0  0  0  0
    7.4940   12.0730   10.4540 O   0  0  0  0  0  0  0  0  0  0  0  0
    8.2010   11.1750    8.4120 N   0  0  0  0  0  0  0  0  0  0  0  0
    8.9720   10.0530    8.9020 C   0  0  0  0  0  0  0  0  0  0  0  0
    8.4150    8.6880    8.5110 C   0  0  0  0  0  0  0  0  0  0  0  0
    7.0650    8.7300    8.4420 F   0  0  0  0  0  0  0  0  0  0  0  0
    8.8650    8.3230    7.2880 F   0  0  0  0  0  0  0  0  0  0  0  0
    8.7550    7.7190    9.3830 F   0  0  0  0  0  0  0  0  0  0  0  0
    8.1760   11.6610    7.1030 C   0  0  0  0  0  0  0  0  0  0  0  0
    8.6980   11.2290    5.9250 C   0  0  0  0  0  0  0  0  0  0  0  0
    8.5220   11.9410    4.7910 N   0  0  0  0  0  0  0  0  0  0  0  0
    7.8210   13.1080    4.8680 C   0  0  0  0  0  0  0  0  0  0  0  0
    7.6290   13.8780    3.6210 C   0  0  0  0  0  0  0  0  0  0  0  0
    7.7080   13.2620    2.3560 C   0  0  0  0  0  0  0  0  0  0  0  0
    7.5240   13.9880    1.1750 C   0  0  0  0  0  0  0  0  0  0  0  0
    7.2550   15.3520    1.2290 C   0  0  0  0  0  0  0  0  0  0  0  0
    7.1700   15.9890    2.4630 C   0  0  0  0  0  0  0  0  0  0  0  0
    7.3540   15.2600    3.6420 C   0  0  0  0  0  0  0  0  0  0  0  0
    7.2800   13.6080    6.0020 N   0  0  0  0  0  0  0  0  0  0  0  0
    7.4800   12.8510    7.0780 C   0  0  0  0  0  0  0  0  0  0  0  0
    4.0364   18.5693    8.8122 H   0  0  0  0  0  0  0  0  0  0  0  0
    4.7693   17.7537    7.3895 H   0  0  0  0  0  0  0  0  0  0  0  0
    3.0194   18.1592    7.3895 H   0  0  0  0  0  0  0  0  0  0  0  0
    3.7965   16.5096    9.6990 H   0  0  0  0  0  0  0  0  0  0  0  0
    2.4830   16.2726    8.4702 H   0  0  0  0  0  0  0  0  0  0  0  0
    4.4117   16.4117    6.1607 H   0  0  0  0  0  0  0  0  0  0  0  0
    5.2039   14.7837    6.2115 H   0  0  0  0  0  0  0  0  0  0  0  0
    3.9156   12.7357    5.9827 H   0  0  0  0  0  0  0  0  0  0  0  0
    1.8636   11.6764    5.0486 H   0  0  0  0  0  0  0  0  0  0  0  0
   -0.1298   13.0758    4.5113 H   0  0  0  0  0  0  0  0  0  0  0  0
   -0.0699   15.5353    4.9103 H   0  0  0  0  0  0  0  0  0  0  0  0
    1.9777   16.6020    5.8441 H   0  0  0  0  0  0  0  0  0  0  0  0
    6.8816   15.1716    8.1883 H   0  0  0  0  0  0  0  0  0  0  0  0
    6.7208   14.5082    9.8700 H   0  0  0  0  0  0  0  0  0  0  0  0
    9.9930   10.1358    8.5012 H   0  0  0  0  0  0  0  0  0  0  0  0
    8.9375   10.1037   10.0003 H   0  0  0  0  0  0  0  0  0  0  0  0
    9.2698   10.2897    5.8948 H   0  0  0  0  0  0  0  0  0  0  0  0
    7.9195   12.1842    2.2961 H   0  0  0  0  0  0  0  0  0  0  0  0
    7.5921   13.4798    0.2018 H   0  0  0  0  0  0  0  0  0  0  0  0
    7.1102   15.9240    0.3006 H   0  0  0  0  0  0  0  0  0  0  0  0
    6.9578   17.0673    2.5112 H   0  0  0  0  0  0  0  0  0  0  0  0
    7.2823   15.7780    4.6097 H   0  0  0  0  0  0  0  0  0  0  0  0
  1  2  1  0  0  0  0
  1 35  1  0  0  0  0
  1 36  1  0  0  0  0
  1 37  1  0  0  0  0
  2  3  1  0  0  0  0
  2 38  1  0  0  0  0
  2 39  1  0  0  0  0
  3  4  1  0  0  0  0
  3 11  1  0  0  0  0
  4  5  1  0  0  0  0
  4 40  1  0  0  0  0
  4 41  1  0  0  0  0
  5  6  2  0  0  0  0
  6  7  1  0  0  0  0
  6 42  1  0  0  0  0
  7  8  2  0  0  0  0
  7 43  1  0  0  0  0
  8  9  1  0  0  0  0
  8 44  1  0  0  0  0
  9 10  2  0  0  0  0
  9 45  1  0  0  0  0
 10  5  1  0  0  0  0
 10 46  1  0  0  0  0
 11 12  2  0  0  0  0
 11 13  1  0  0  0  0
 13 14  1  0  0  0  0
 13 47  1  0  0  0  0
 13 48  1  0  0  0  0
 14 15  1  0  0  0  0
 15 16  2  0  0  0  0
 15 17  1  0  0  0  0
 17 18  1  0  0  0  0
 17 23  1  0  0  0  0
 18 19  1  0  0  0  0
 18 49  1  0  0  0  0
 18 50  1  0  0  0  0
 19 20  1  0  0  0  0
 19 21  1  0  0  0  0
 19 22  1  0  0  0  0
 23 24  2  0  0  0  0
 24 25  1  0  0  0  0
 24 51  1  0  0  0  0
 25 26  2  0  0  0  0
 26 27  1  0  0  0  0
 26 33  1  0  0  0  0
 27 28  2  0  0  0  0
 28 29  1  0  0  0  0
 28 52  1  0  0  0  0
 29 30  2  0  0  0  0
 29 53  1  0  0  0  0
 30 31  1  0  0  0  0
 30 54  1  0  0  0  0
 31 32  2  0  0  0  0
 31 55  1  0  0  0  0
 32 27  1  0  0  0  0
 32 56  1  0  0  0  0
 33 34  2  0  0  0  0
 34 14  1  0  0  0  0
 34 23  1  0  0  0  0
M  END
>  <meeko>
{"is_sidechain": [false], "free_energy": -6.33, "intermolecular_energy": -9.66, "internal_energy": -1.858}

$$$$
