emap2_Bn_CH2CF3
 OpenBabel07042618103D

 34 37  0  0  0  0  0  0  0  0999 V2000
    7.1980   13.0630    8.3830 N   0  0  0  0  0  0  0  0  0  0  0  0
    7.6140   12.8790    7.0620 C   0  0  0  0  0  0  0  0  0  0  0  0
    8.3520   11.7110    7.0310 C   0  0  0  0  0  0  0  0  0  0  0  0
    8.8070   11.3000    5.8200 C   0  0  0  0  0  3  0  0  0  0  0  0
    8.5620   12.0260    4.7120 N   0  0  0  0  0  0  0  0  0  0  0  0
    7.8430   13.1810    4.8440 C   0  0  0  0  0  0  0  0  0  0  0  0
    7.3350   13.6470    6.0070 N   0  0  0  0  0  0  0  0  0  0  0  0
    8.4500   11.1970    8.3250 N   0  0  0  0  0  0  0  0  0  0  0  0
    7.7180   12.0370    9.1840 C   0  0  0  0  0  0  0  0  0  0  0  0
    7.5670   11.8800   10.3850 O   0  0  0  0  0  0  0  0  0  0  0  0
    7.6010   13.9590    3.6090 C   0  0  0  0  0  0  0  0  0  0  0  0
    7.3760   15.3510    3.6590 C   0  0  0  0  0  3  0  0  0  0  0  0
    7.1540   16.1030    2.5020 C   0  0  0  0  0  3  0  0  0  0  0  0
    7.1480   15.4790    1.2600 C   0  0  0  0  0  3  0  0  0  0  0  0
    7.3600   14.1040    1.1750 C   0  0  0  0  0  3  0  0  0  0  0  0
    7.5830   13.3560    2.3380 C   0  0  0  0  0  3  0  0  0  0  0  0
    9.1190    9.9780    8.7270 C   0  0  0  0  0  2  0  0  0  0  0  0
    8.4220    8.6830    8.3070 C   0  0  0  0  0  0  0  0  0  0  0  0
    8.6650    8.3510    7.0210 F   0  0  0  0  0  0  0  0  0  0  0  0
    8.8620    7.6520    9.0710 F   0  0  0  0  0  0  0  0  0  0  0  0
    7.0830    8.7600    8.4720 F   0  0  0  0  0  0  0  0  0  0  0  0
    6.4600   14.2040    8.8570 C   0  0  0  0  0  2  0  0  0  0  0  0
    3.9840   13.9100    8.5690 N   0  0  0  0  0  0  0  0  0  0  0  0
    5.0870   13.8010    9.4270 C   0  0  0  0  0  0  0  0  0  0  0  0
    4.9960   13.3980   10.5890 O   0  0  0  0  0  0  0  0  0  0  0  0
    1.7800   14.6230    9.7270 C   0  0  0  0  0  1  0  0  0  0  0  0
    2.6090   13.5820    8.9900 C   0  0  0  0  0  2  0  0  0  0  0  0
    4.1030   14.4050    7.1890 C   0  0  0  0  0  2  0  0  0  0  0  0
    2.8740   14.2560    6.3160 C   0  0  0  0  0  0  0  0  0  0  0  0
    2.0190   15.3180    5.9920 C   0  0  0  0  0  3  0  0  0  0  0  0
    0.8760   15.1050    5.2140 C   0  0  0  0  0  3  0  0  0  0  0  0
    0.5730   13.8290    4.7460 C   0  0  0  0  0  3  0  0  0  0  0  0
    1.4190   12.7650    5.0400 C   0  0  0  0  0  3  0  0  0  0  0  0
    2.5610   12.9770    5.8170 C   0  0  0  0  0  3  0  0  0  0  0  0
  1 22  1  0  0  0  0
  1  9  1  0  0  0  0
  2  1  1  0  0  0  0
  3  2  1  0  0  0  0
  3  8  1  0  0  0  0
  4  3  2  0  0  0  0
  5  6  2  0  0  0  0
  5  4  1  0  0  0  0
  6  7  1  0  0  0  0
  7  2  2  0  0  0  0
  8 17  1  0  0  0  0
  8  9  1  0  0  0  0
  9 10  2  0  0  0  0
 11 12  1  0  0  0  0
 11  6  1  0  0  0  0
 13 12  2  0  0  0  0
 14 13  1  0  0  0  0
 15 14  2  0  0  0  0
 15 16  1  0  0  0  0
 16 11  2  0  0  0  0
 18 21  1  0  0  0  0
 18 17  1  0  0  0  0
 18 20  1  0  0  0  0
 19 18  1  0  0  0  0
 22 24  1  0  0  0  0
 23 27  1  0  0  0  0
 23 24  1  0  0  0  0
 24 25  2  0  0  0  0
 27 26  1  0  0  0  0
 28 23  1  0  0  0  0
 29 28  1  0  0  0  0
 30 29  1  0  0  0  0
 31 30  2  0  0  0  0
 32 33  2  0  0  0  0
 32 31  1  0  0  0  0
 33 34  1  0  0  0  0
 34 29  2  0  0  0  0
M  END
>  <MODEL>
1

>  <REMARK>
 VINA RESULT:    -6.605      0.000      0.000
 INTER + INTRA:         -10.922
 INTER:                  -9.693
 INTRA:                  -1.228
 UNBOUND:                -1.228
  Name = emap2_Bn_CH2CF3
  9 active torsions:
  status: ('A' for Active; 'I' for Inactive)
    1  A    between atoms: C_1  and  C_2
    2  A    between atoms: C_2  and  N_3
    3  A    between atoms: N_3  and  C_4
    4  A    between atoms: C_4  and  C_5
    5  A    between atoms: C_11  and  C_13
    6  A    between atoms: C_13  and  N_14
    7  A    between atoms: C_19  and  C_21
    8  A    between atoms: N_27  and  C_30
    9  A    between atoms: C_30  and  C_31
                            x       y       z     vdW  Elec       q    Type
                         _______ _______ _______ _____ _____    ______ ____

>  <TORSDO>
F 8

$$$$
