A7_fine14_out
 OpenBabel07242623563D

 53 56  0  0  0  0  0  0  0  0999 V2000
    0.8340   18.8520    3.8630 C   0  0  0  0  0  0  0  0  0  0  0  0
    1.5770   18.0380    4.9110 C   0  0  0  0  0  0  0  0  0  0  0  0
    0.6610   17.3800    5.8430 N   0  0  0  0  0  0  0  0  0  0  0  0
   -0.1350   16.2660    5.3220 C   0  0  0  0  0  0  0  0  0  0  0  0
    0.3270   14.9190    5.8120 C   0  0  0  0  0  0  0  0  0  0  0  0
    1.2460   14.1380    5.0940 C   0  0  0  0  0  0  0  0  0  0  0  0
    1.6190   12.8840    5.5700 C   0  0  0  0  0  0  0  0  0  0  0  0
    2.5000   12.1530    4.8760 F   0  0  0  0  0  0  0  0  0  0  0  0
    1.0890   12.3740    6.7510 C   0  0  0  0  0  0  0  0  0  0  0  0
    0.1640   13.1310    7.4650 C   0  0  0  0  0  0  0  0  0  0  0  0
   -0.2120   14.3860    6.9900 C   0  0  0  0  0  0  0  0  0  0  0  0
   -1.1080   15.0970    7.6900 F   0  0  0  0  0  0  0  0  0  0  0  0
    0.4380   17.9860    7.0820 C   0  0  0  0  0  0  0  0  0  0  0  0
   -0.6940   18.3470    7.4210 O   0  0  0  0  0  0  0  0  0  0  0  0
    1.6590   18.2350    7.9840 C   0  0  0  0  0  0  0  0  0  0  0  0
    1.8940   17.1040    8.8410 N   0  0  0  0  0  0  0  0  0  0  0  0
    1.1720   16.7750    9.9980 C   0  0  0  0  0  0  0  0  0  0  0  0
    0.3460   17.4660   10.5710 O   0  0  0  0  0  0  0  0  0  0  0  0
    1.5950   15.5000   10.3740 N   0  0  0  0  0  0  0  0  0  0  0  0
    1.1610   14.8200   11.5360 C   0  0  0  0  0  0  0  0  0  0  0  0
    1.4660   15.5470   12.6430 F   0  0  0  0  0  0  0  0  0  0  0  0
   -0.1920   14.7120   11.5140 F   0  0  0  0  0  0  0  0  0  0  0  0
    2.5430   15.0560    9.4570 C   0  0  0  0  0  0  0  0  0  0  0  0
    3.2730   13.9190    9.3270 C   0  0  0  0  0  0  0  0  0  0  0  0
    4.1260   13.7680    8.2890 N   0  0  0  0  0  0  0  0  0  0  0  0
    4.2190   14.7820    7.3800 C   0  0  0  0  0  0  0  0  0  0  0  0
    5.1480   14.5980    6.2440 C   0  0  0  0  0  0  0  0  0  0  0  0
    5.7850   15.6940    5.6270 C   0  0  0  0  0  0  0  0  0  0  0  0
    6.6620   15.5220    4.5520 C   0  0  0  0  0  0  0  0  0  0  0  0
    6.9250   14.2450    4.0640 C   0  0  0  0  0  0  0  0  0  0  0  0
    6.3110   13.1430    4.6500 C   0  0  0  0  0  0  0  0  0  0  0  0
    5.4330   13.3200    5.7250 C   0  0  0  0  0  0  0  0  0  0  0  0
    3.5340   15.9460    7.4460 N   0  0  0  0  0  0  0  0  0  0  0  0
    2.7180   16.0260    8.4950 C   0  0  0  0  0  0  0  0  0  0  0  0
    0.1731   19.5761    4.3619 H   0  0  0  0  0  0  0  0  0  0  0  0
    1.5591   19.3898    3.2346 H   0  0  0  0  0  0  0  0  0  0  0  0
    0.2324   18.1788    3.2346 H   0  0  0  0  0  0  0  0  0  0  0  0
    2.1795   17.2704    4.4033 H   0  0  0  0  0  0  0  0  0  0  0  0
    2.2134   18.7254    5.4876 H   0  0  0  0  0  0  0  0  0  0  0  0
   -1.1806   16.4098    5.6320 H   0  0  0  0  0  0  0  0  0  0  0  0
   -0.0210   16.2697    4.2279 H   0  0  0  0  0  0  0  0  0  0  0  0
    1.6722   14.5174    4.1536 H   0  0  0  0  0  0  0  0  0  0  0  0
    1.3974   11.3835    7.1166 H   0  0  0  0  0  0  0  0  0  0  0  0
   -0.2675   12.7407    8.3986 H   0  0  0  0  0  0  0  0  0  0  0  0
    2.5455   18.4020    7.3545 H   0  0  0  0  0  0  0  0  0  0  0  0
    1.4641   19.1191    8.6088 H   0  0  0  0  0  0  0  0  0  0  0  0
    1.6506   13.8353   11.5603 H   0  0  0  0  0  0  0  0  0  0  0  0
    3.1699   13.1153   10.0710 H   0  0  0  0  0  0  0  0  0  0  0  0
    5.5871   16.7095    6.0007 H   0  0  0  0  0  0  0  0  0  0  0  0
    7.1447   16.3965    4.0913 H   0  0  0  0  0  0  0  0  0  0  0  0
    7.6154   14.1080    3.2186 H   0  0  0  0  0  0  0  0  0  0  0  0
    6.5158   12.1319    4.2681 H   0  0  0  0  0  0  0  0  0  0  0  0
    4.9533   12.4389    6.1761 H   0  0  0  0  0  0  0  0  0  0  0  0
  1  2  1  0  0  0  0
  1 35  1  0  0  0  0
  1 36  1  0  0  0  0
  1 37  1  0  0  0  0
  2  3  1  0  0  0  0
  2 38  1  0  0  0  0
  2 39  1  0  0  0  0
  3  4  1  0  0  0  0
  3 13  1  0  0  0  0
  4  5  1  0  0  0  0
  4 40  1  0  0  0  0
  4 41  1  0  0  0  0
  5  6  2  0  0  0  0
  6  7  1  0  0  0  0
  6 42  1  0  0  0  0
  7  8  1  0  0  0  0
  7  9  2  0  0  0  0
  9 10  1  0  0  0  0
  9 43  1  0  0  0  0
 10 11  2  0  0  0  0
 10 44  1  0  0  0  0
 11 12  1  0  0  0  0
 11  5  1  0  0  0  0
 13 14  2  0  0  0  0
 13 15  1  0  0  0  0
 15 16  1  0  0  0  0
 15 45  1  0  0  0  0
 15 46  1  0  0  0  0
 16 17  1  0  0  0  0
 17 18  2  0  0  0  0
 17 19  1  0  0  0  0
 19 20  1  0  0  0  0
 19 23  1  0  0  0  0
 20 21  1  0  0  0  0
 20 22  1  0  0  0  0
 20 47  1  0  0  0  0
 23 24  2  0  0  0  0
 24 25  1  0  0  0  0
 24 48  1  0  0  0  0
 25 26  2  0  0  0  0
 26 27  1  0  0  0  0
 26 33  1  0  0  0  0
 27 28  2  0  0  0  0
 28 29  1  0  0  0  0
 28 49  1  0  0  0  0
 29 30  2  0  0  0  0
 29 50  1  0  0  0  0
 30 31  1  0  0  0  0
 30 51  1  0  0  0  0
 31 32  2  0  0  0  0
 31 52  1  0  0  0  0
 32 27  1  0  0  0  0
 32 53  1  0  0  0  0
 33 34  2  0  0  0  0
 34 16  1  0  0  0  0
 34 23  1  0  0  0  0
M  END
>  <meeko>
{"is_sidechain": [false], "free_energy": -5.741, "intermolecular_energy": -8.426, "internal_energy": -3.15}

$$$$
