A17_meeko_out
     RDKit          3D

 56 59  0  0  0  0  0  0  0  0999 V2000
    7.0590   16.1180    3.7520 C   0  0  0  0  0  0  0  0  0  0  0  0
    8.3530   15.5110    3.2330 C   0  0  0  0  0  0  0  0  0  0  0  0
    8.1540   14.2500    2.5110 N   0  0  0  0  0  0  0  0  0  0  0  0
    7.4350   14.3040    1.2350 C   0  0  0  0  0  0  0  0  0  0  0  0
    8.1470   15.1110    0.1630 C   0  0  0  0  0  0  0  0  0  0  0  0
    9.5060   14.8420   -0.0890 C   0  0  0  0  0  0  0  0  0  0  0  0
   10.2060   15.5530   -1.0560 C   0  0  0  0  0  0  0  0  0  0  0  0
   11.4990   15.2830   -1.2710 F   0  0  0  0  0  0  0  0  0  0  0  0
    9.5820   16.5390   -1.8040 C   0  0  0  0  0  0  0  0  0  0  0  0
    8.2320   16.8130   -1.5830 C   0  0  0  0  0  0  0  0  0  0  0  0
    7.4950   16.1070   -0.6090 C   0  0  0  0  0  0  0  0  0  0  0  0
    6.0300   16.4390   -0.4220 C   0  0  0  0  0  0  0  0  0  0  0  0
    5.7610   16.9360    0.8170 F   0  0  0  0  0  0  0  0  0  0  0  0
    5.2020   15.3680   -0.5770 F   0  0  0  0  0  0  0  0  0  0  0  0
    5.5890   17.3730   -1.3080 F   0  0  0  0  0  0  0  0  0  0  0  0
    8.6720   13.0200    2.9180 C   0  0  0  0  0  0  0  0  0  0  0  0
    9.7860   12.6360    2.5440 O   0  0  0  0  0  0  0  0  0  0  0  0
    7.8560   12.1410    3.8750 C   0  0  0  0  0  0  0  0  0  0  0  0
    7.8800   12.5680    5.2500 N   0  0  0  0  0  0  0  0  0  0  0  0
    8.9700   12.4750    6.1320 C   0  0  0  0  0  0  0  0  0  0  0  0
   10.0930   12.0830    5.8630 O   0  0  0  0  0  0  0  0  0  0  0  0
    8.5070   12.9340    7.3820 N   0  0  0  0  0  0  0  0  0  0  0  0
    9.2700   13.0080    8.5940 C   0  0  0  0  0  0  0  0  0  0  0  0
    7.1590   13.2650    7.2500 C   0  0  0  0  0  0  0  0  0  0  0  0
    6.2160   13.7370    8.1070 C   0  0  0  0  0  0  0  0  0  0  0  0
    4.9540   13.9710    7.6840 N   0  0  0  0  0  0  0  0  0  0  0  0
    4.6620   13.7150    6.3760 C   0  0  0  0  0  0  0  0  0  0  0  0
    3.2850   13.9830    5.9100 C   0  0  0  0  0  0  0  0  0  0  0  0
    2.4270   12.9430    5.5050 C   0  0  0  0  0  0  0  0  0  0  0  0
    1.1230   13.1990    5.0660 C   0  0  0  0  0  0  0  0  0  0  0  0
    0.6450   14.5050    5.0230 C   0  0  0  0  0  0  0  0  0  0  0  0
    1.4690   15.5540    5.4180 C   0  0  0  0  0  0  0  0  0  0  0  0
    2.7720   15.2950    5.8560 C   0  0  0  0  0  0  0  0  0  0  0  0
    5.5430   13.2400    5.4700 N   0  0  0  0  0  0  0  0  0  0  0  0
    6.7650   13.0380    5.9500 C   0  0  0  0  0  0  0  0  0  0  0  0
    7.0674   16.1140    4.8520 H   0  0  0  0  0  0  0  0  0  0  0  0
    6.9682   17.1527    3.3897 H   0  0  0  0  0  0  0  0  0  0  0  0
    6.2053   15.5264    3.3897 H   0  0  0  0  0  0  0  0  0  0  0  0
    8.8282   16.2321    2.5517 H   0  0  0  0  0  0  0  0  0  0  0  0
    8.9826   15.2897    4.1074 H   0  0  0  0  0  0  0  0  0  0  0  0
    7.3056   13.2758    0.8662 H   0  0  0  0  0  0  0  0  0  0  0  0
    6.4756   14.8059    1.4292 H   0  0  0  0  0  0  0  0  0  0  0  0
   10.0202   14.0587    0.4872 H   0  0  0  0  0  0  0  0  0  0  0  0
   10.1455   17.0998   -2.5642 H   0  0  0  0  0  0  0  0  0  0  0  0
    7.7339   17.5926   -2.1781 H   0  0  0  0  0  0  0  0  0  0  0  0
    6.8102   12.1418    3.5339 H   0  0  0  0  0  0  0  0  0  0  0  0
    8.3175   11.1428    3.8508 H   0  0  0  0  0  0  0  0  0  0  0  0
    8.5927   12.9423    9.4583 H   0  0  0  0  0  0  0  0  0  0  0  0
    9.9880   12.1753    8.6267 H   0  0  0  0  0  0  0  0  0  0  0  0
    9.8146   13.9632    8.6267 H   0  0  0  0  0  0  0  0  0  0  0  0
    6.4827   13.9307    9.1564 H   0  0  0  0  0  0  0  0  0  0  0  0
    2.7899   11.9050    5.5343 H   0  0  0  0  0  0  0  0  0  0  0  0
    0.4750   12.3665    4.7545 H   0  0  0  0  0  0  0  0  0  0  0  0
   -0.3798   14.7071    4.6782 H   0  0  0  0  0  0  0  0  0  0  0  0
    1.0955   16.5882    5.3859 H   0  0  0  0  0  0  0  0  0  0  0  0
    3.4114   16.1348    6.1656 H   0  0  0  0  0  0  0  0  0  0  0  0
  1  2  1  0
  2  3  1  0
  3  4  1  0
  4  5  1  0
  5  6  2  0
  6  7  1  0
  7  8  1  0
  7  9  2  0
  9 10  1  0
 10 11  2  0
 11 12  1  0
 12 13  1  0
 12 14  1  0
 12 15  1  0
  3 16  1  0
 16 17  2  0
 16 18  1  0
 18 19  1  0
 19 20  1  0
 20 21  2  0
 20 22  1  0
 22 23  1  0
 22 24  1  0
 24 25  2  0
 25 26  1  0
 26 27  2  0
 27 28  1  0
 28 29  2  0
 29 30  1  0
 30 31  2  0
 31 32  1  0
 32 33  2  0
 27 34  1  0
 34 35  2  0
 11  5  1  0
 35 19  1  0
 35 24  1  0
 33 28  1  0
  1 36  1  0
  1 37  1  0
  1 38  1  0
  2 39  1  0
  2 40  1  0
  4 41  1  0
  4 42  1  0
  6 43  1  0
  9 44  1  0
 10 45  1  0
 18 46  1  0
 18 47  1  0
 23 48  1  0
 23 49  1  0
 23 50  1  0
 25 51  1  0
 29 52  1  0
 30 53  1  0
 31 54  1  0
 32 55  1  0
 33 56  1  0
M  END
>  <meeko>  (1) 
{"is_sidechain": [false], "free_energy": -6.744, "intermolecular_energy": -9.897, "internal_energy": -1.745}

$$$$
A17_meeko_out
     RDKit          3D

 56 59  0  0  0  0  0  0  0  0999 V2000
    8.6130   16.2260    4.1540 C   0  0  0  0  0  0  0  0  0  0  0  0
    7.5980   15.5390    3.2530 C   0  0  0  0  0  0  0  0  0  0  0  0
    8.2110   14.6420    2.2680 N   0  0  0  0  0  0  0  0  0  0  0  0
    8.4310   15.1670    0.9160 C   0  0  0  0  0  0  0  0  0  0  0  0
    7.3470   16.1210    0.4440 C   0  0  0  0  0  0  0  0  0  0  0  0
    7.5030   17.4970    0.7040 C   0  0  0  0  0  0  0  0  0  0  0  0
    6.5400   18.4120    0.2970 C   0  0  0  0  0  0  0  0  0  0  0  0
    6.7080   19.7130    0.5650 F   0  0  0  0  0  0  0  0  0  0  0  0
    5.4070   17.9970   -0.3830 C   0  0  0  0  0  0  0  0  0  0  0  0
    5.2380   16.6410   -0.6660 C   0  0  0  0  0  0  0  0  0  0  0  0
    6.1990   15.6880   -0.2670 C   0  0  0  0  0  0  0  0  0  0  0  0
    5.9680   14.2320   -0.6120 C   0  0  0  0  0  0  0  0  0  0  0  0
    6.7760   13.8000   -1.6200 F   0  0  0  0  0  0  0  0  0  0  0  0
    4.6970   13.9600   -1.0180 F   0  0  0  0  0  0  0  0  0  0  0  0
    6.2020   13.4020    0.4410 F   0  0  0  0  0  0  0  0  0  0  0  0
    8.6690   13.3560    2.5520 C   0  0  0  0  0  0  0  0  0  0  0  0
    9.7580   12.9530    2.1260 O   0  0  0  0  0  0  0  0  0  0  0  0
    7.8200   12.4330    3.4360 C   0  0  0  0  0  0  0  0  0  0  0  0
    7.8850   12.7270    4.8450 N   0  0  0  0  0  0  0  0  0  0  0  0
    9.0080   12.5750    5.6760 C   0  0  0  0  0  0  0  0  0  0  0  0
   10.1280   12.2370    5.3320 O   0  0  0  0  0  0  0  0  0  0  0  0
    8.5810   12.9000    6.9790 N   0  0  0  0  0  0  0  0  0  0  0  0
    9.3850   12.8750    8.1670 C   0  0  0  0  0  0  0  0  0  0  0  0
    7.2220   13.2110    6.9260 C   0  0  0  0  0  0  0  0  0  0  0  0
    6.3020   13.5750    7.8560 C   0  0  0  0  0  0  0  0  0  0  0  0
    5.0210   13.8190    7.5000 N   0  0  0  0  0  0  0  0  0  0  0  0
    4.6870   13.6840    6.1840 C   0  0  0  0  0  0  0  0  0  0  0  0
    3.2890   13.9630    5.7940 C   0  0  0  0  0  0  0  0  0  0  0  0
    2.4180   12.9360    5.3820 C   0  0  0  0  0  0  0  0  0  0  0  0
    1.0950   13.2020    5.0150 C   0  0  0  0  0  0  0  0  0  0  0  0
    0.6090   14.5060    5.0510 C   0  0  0  0  0  0  0  0  0  0  0  0
    1.4450   15.5420    5.4550 C   0  0  0  0  0  0  0  0  0  0  0  0
    2.7670   15.2730    5.8220 C   0  0  0  0  0  0  0  0  0  0  0  0
    5.5440   13.3190    5.2070 N   0  0  0  0  0  0  0  0  0  0  0  0
    6.7870   13.1010    5.6240 C   0  0  0  0  0  0  0  0  0  0  0  0
    8.3490   16.0473    5.2068 H   0  0  0  0  0  0  0  0  0  0  0  0
    9.6154   15.8200    3.9534 H   0  0  0  0  0  0  0  0  0  0  0  0
    8.6086   17.3075    3.9534 H   0  0  0  0  0  0  0  0  0  0  0  0
    6.9137   14.9512    3.8824 H   0  0  0  0  0  0  0  0  0  0  0  0
    7.0724   16.3270    2.6937 H   0  0  0  0  0  0  0  0  0  0  0  0
    9.3924   15.7013    0.9038 H   0  0  0  0  0  0  0  0  0  0  0  0
    8.4190   14.3054    0.2322 H   0  0  0  0  0  0  0  0  0  0  0  0
    8.3984   17.8512    1.2358 H   0  0  0  0  0  0  0  0  0  0  0  0
    4.6481   18.7288   -0.6968 H   0  0  0  0  0  0  0  0  0  0  0  0
    4.3407   16.3096   -1.2092 H   0  0  0  0  0  0  0  0  0  0  0  0
    6.7714   12.5197    3.1153 H   0  0  0  0  0  0  0  0  0  0  0  0
    8.2269   11.4189    3.3097 H   0  0  0  0  0  0  0  0  0  0  0  0
    8.7321   12.8953    9.0521 H   0  0  0  0  0  0  0  0  0  0  0  0
    9.9917   11.9576    8.1799 H   0  0  0  0  0  0  0  0  0  0  0  0
   10.0476   13.7530    8.1799 H   0  0  0  0  0  0  0  0  0  0  0  0
    6.6022   13.6723    8.9098 H   0  0  0  0  0  0  0  0  0  0  0  0
    2.7869   11.9003    5.3480 H   0  0  0  0  0  0  0  0  0  0  0  0
    0.4373   12.3795    4.6974 H   0  0  0  0  0  0  0  0  0  0  0  0
   -0.4311   14.7162    4.7614 H   0  0  0  0  0  0  0  0  0  0  0  0
    1.0655   16.5740    5.4857 H   0  0  0  0  0  0  0  0  0  0  0  0
    3.4154   16.1027    6.1401 H   0  0  0  0  0  0  0  0  0  0  0  0
  1  2  1  0
  2  3  1  0
  3  4  1  0
  4  5  1  0
  5  6  2  0
  6  7  1  0
  7  8  1  0
  7  9  2  0
  9 10  1  0
 10 11  2  0
 11 12  1  0
 12 13  1  0
 12 14  1  0
 12 15  1  0
  3 16  1  0
 16 17  2  0
 16 18  1  0
 18 19  1  0
 19 20  1  0
 20 21  2  0
 20 22  1  0
 22 23  1  0
 22 24  1  0
 24 25  2  0
 25 26  1  0
 26 27  2  0
 27 28  1  0
 28 29  2  0
 29 30  1  0
 30 31  2  0
 31 32  1  0
 32 33  2  0
 27 34  1  0
 34 35  2  0
 11  5  1  0
 35 19  1  0
 35 24  1  0
 33 28  1  0
  1 36  1  0
  1 37  1  0
  1 38  1  0
  2 39  1  0
  2 40  1  0
  4 41  1  0
  4 42  1  0
  6 43  1  0
  9 44  1  0
 10 45  1  0
 18 46  1  0
 18 47  1  0
 23 48  1  0
 23 49  1  0
 23 50  1  0
 25 51  1  0
 29 52  1  0
 30 53  1  0
 31 54  1  0
 32 55  1  0
 33 56  1  0
M  END
>  <meeko>  (2) 
{"is_sidechain": [false], "free_energy": -6.742, "intermolecular_energy": -10.427, "internal_energy": -1.213}

$$$$
A17_meeko_out
     RDKit          3D

 56 59  0  0  0  0  0  0  0  0999 V2000
    9.8890   15.7670    4.8540 C   0  0  0  0  0  0  0  0  0  0  0  0
   10.2400   15.1710    3.4990 C   0  0  0  0  0  0  0  0  0  0  0  0
    9.1070   14.5060    2.8470 N   0  0  0  0  0  0  0  0  0  0  0  0
    8.1230   15.3520    2.1650 C   0  0  0  0  0  0  0  0  0  0  0  0
    7.7940   14.8950    0.7540 C   0  0  0  0  0  0  0  0  0  0  0  0
    6.5520   14.2690    0.5240 C   0  0  0  0  0  0  0  0  0  0  0  0
    6.2020   13.8280   -0.7470 C   0  0  0  0  0  0  0  0  0  0  0  0
    5.0200   13.2300   -0.9370 F   0  0  0  0  0  0  0  0  0  0  0  0
    7.0600   14.0010   -1.8210 C   0  0  0  0  0  0  0  0  0  0  0  0
    8.2880   14.6320   -1.6200 C   0  0  0  0  0  0  0  0  0  0  0  0
    8.6710   15.0910   -0.3420 C   0  0  0  0  0  0  0  0  0  0  0  0
   10.0110   15.7800   -0.1870 C   0  0  0  0  0  0  0  0  0  0  0  0
    9.9440   16.8750    0.6190 F   0  0  0  0  0  0  0  0  0  0  0  0
   10.5410   16.2190   -1.3620 F   0  0  0  0  0  0  0  0  0  0  0  0
   10.9550   14.9660    0.3600 F   0  0  0  0  0  0  0  0  0  0  0  0
    8.9480   13.1220    2.7660 C   0  0  0  0  0  0  0  0  0  0  0  0
    9.7020   12.4290    2.0740 O   0  0  0  0  0  0  0  0  0  0  0  0
    7.8340   12.4450    3.5750 C   0  0  0  0  0  0  0  0  0  0  0  0
    7.8820   12.7010    4.9920 N   0  0  0  0  0  0  0  0  0  0  0  0
    8.9790   12.4820    5.8410 C   0  0  0  0  0  0  0  0  0  0  0  0
   10.0920   12.1060    5.5110 O   0  0  0  0  0  0  0  0  0  0  0  0
    8.5400   12.7930    7.1430 N   0  0  0  0  0  0  0  0  0  0  0  0
    9.3170   12.7050    8.3450 C   0  0  0  0  0  0  0  0  0  0  0  0
    7.1960   13.1620    7.0700 C   0  0  0  0  0  0  0  0  0  0  0  0
    6.2720   13.5410    7.9910 C   0  0  0  0  0  0  0  0  0  0  0  0
    5.0100   13.8470    7.6170 N   0  0  0  0  0  0  0  0  0  0  0  0
    4.6980   13.7580    6.2910 C   0  0  0  0  0  0  0  0  0  0  0  0
    3.3220   14.1050    5.8800 C   0  0  0  0  0  0  0  0  0  0  0  0
    2.8620   15.4360    5.8910 C   0  0  0  0  0  0  0  0  0  0  0  0
    1.5590   15.7640    5.5000 C   0  0  0  0  0  0  0  0  0  0  0  0
    0.6830   14.7640    5.0880 C   0  0  0  0  0  0  0  0  0  0  0  0
    1.1080   13.4400    5.0650 C   0  0  0  0  0  0  0  0  0  0  0  0
    2.4110   13.1160    5.4570 C   0  0  0  0  0  0  0  0  0  0  0  0
    5.5600   13.3820    5.3220 N   0  0  0  0  0  0  0  0  0  0  0  0
    6.7840   13.1020    5.7580 C   0  0  0  0  0  0  0  0  0  0  0  0
   10.2731   15.1147    5.6521 H   0  0  0  0  0  0  0  0  0  0  0  0
   10.3439   16.7644    4.9448 H   0  0  0  0  0  0  0  0  0  0  0  0
    8.7961   15.8528    4.9448 H   0  0  0  0  0  0  0  0  0  0  0  0
   10.5948   15.9797    2.8431 H   0  0  0  0  0  0  0  0  0  0  0  0
   11.0125   14.4067    3.6694 H   0  0  0  0  0  0  0  0  0  0  0  0
    7.1950   15.3495    2.7555 H   0  0  0  0  0  0  0  0  0  0  0  0
    8.5664   16.3552    2.0815 H   0  0  0  0  0  0  0  0  0  0  0  0
    5.8515   14.1278    1.3603 H   0  0  0  0  0  0  0  0  0  0  0  0
    6.7759   13.6445   -2.8221 H   0  0  0  0  0  0  0  0  0  0  0  0
    8.9690   14.7740   -2.4721 H   0  0  0  0  0  0  0  0  0  0  0  0
    6.8665   12.8040    3.1940 H   0  0  0  0  0  0  0  0  0  0  0  0
    7.9717   11.3609    3.4490 H   0  0  0  0  0  0  0  0  0  0  0  0
    8.6519   12.7803    9.2179 H   0  0  0  0  0  0  0  0  0  0  0  0
    9.8465   11.7411    8.3696 H   0  0  0  0  0  0  0  0  0  0  0  0
   10.0487   13.5260    8.3696 H   0  0  0  0  0  0  0  0  0  0  0  0
    6.5542   13.5994    9.0526 H   0  0  0  0  0  0  0  0  0  0  0  0
    3.5431   16.2368    6.2146 H   0  0  0  0  0  0  0  0  0  0  0  0
    1.2270   16.8125    5.5183 H   0  0  0  0  0  0  0  0  0  0  0  0
   -0.3420   15.0200    4.7816 H   0  0  0  0  0  0  0  0  0  0  0  0
    0.4190   12.6471    4.7383 H   0  0  0  0  0  0  0  0  0  0  0  0
    2.7325   12.0643    5.4347 H   0  0  0  0  0  0  0  0  0  0  0  0
  1  2  1  0
  2  3  1  0
  3  4  1  0
  4  5  1  0
  5  6  2  0
  6  7  1  0
  7  8  1  0
  7  9  2  0
  9 10  1  0
 10 11  2  0
 11 12  1  0
 12 13  1  0
 12 14  1  0
 12 15  1  0
  3 16  1  0
 16 17  2  0
 16 18  1  0
 18 19  1  0
 19 20  1  0
 20 21  2  0
 20 22  1  0
 22 23  1  0
 22 24  1  0
 24 25  2  0
 25 26  1  0
 26 27  2  0
 27 28  1  0
 28 29  2  0
 29 30  1  0
 30 31  2  0
 31 32  1  0
 32 33  2  0
 27 34  1  0
 34 35  2  0
 11  5  1  0
 35 19  1  0
 35 24  1  0
 33 28  1  0
  1 36  1  0
  1 37  1  0
  1 38  1  0
  2 39  1  0
  2 40  1  0
  4 41  1  0
  4 42  1  0
  6 43  1  0
  9 44  1  0
 10 45  1  0
 18 46  1  0
 18 47  1  0
 23 48  1  0
 23 49  1  0
 23 50  1  0
 25 51  1  0
 29 52  1  0
 30 53  1  0
 31 54  1  0
 32 55  1  0
 33 56  1  0
M  END
>  <meeko>  (3) 
{"is_sidechain": [false], "free_energy": -6.678, "intermolecular_energy": -10.056, "internal_energy": -1.49}

$$$$
A17_meeko_out
     RDKit          3D

 56 59  0  0  0  0  0  0  0  0999 V2000
    5.9430   13.5470    9.5370 C   0  0  0  0  0  0  0  0  0  0  0  0
    6.0590   14.5600    8.4070 C   0  0  0  0  0  0  0  0  0  0  0  0
    5.2770   14.1970    7.2210 N   0  0  0  0  0  0  0  0  0  0  0  0
    3.8580   13.8810    7.4120 C   0  0  0  0  0  0  0  0  0  0  0  0
    2.9140   14.8600    6.7350 C   0  0  0  0  0  0  0  0  0  0  0  0
    3.0510   16.2330    7.0230 C   0  0  0  0  0  0  0  0  0  0  0  0
    2.2120   17.1700    6.4340 C   0  0  0  0  0  0  0  0  0  0  0  0
    2.3570   18.4670    6.7310 F   0  0  0  0  0  0  0  0  0  0  0  0
    1.2260   16.7810    5.5420 C   0  0  0  0  0  0  0  0  0  0  0  0
    1.0810   15.4290    5.2300 C   0  0  0  0  0  0  0  0  0  0  0  0
    1.9190   14.4540    5.8110 C   0  0  0  0  0  0  0  0  0  0  0  0
    1.7240   13.0020    5.4240 C   0  0  0  0  0  0  0  0  0  0  0  0
    0.7490   12.8370    4.4890 F   0  0  0  0  0  0  0  0  0  0  0  0
    1.3730   12.2000    6.4680 F   0  0  0  0  0  0  0  0  0  0  0  0
    2.8510   12.4470    4.8990 F   0  0  0  0  0  0  0  0  0  0  0  0
    5.7730   14.2110    5.9170 C   0  0  0  0  0  0  0  0  0  0  0  0
    6.0690   15.2710    5.3530 O   0  0  0  0  0  0  0  0  0  0  0  0
    5.9860   12.8830    5.1790 C   0  0  0  0  0  0  0  0  0  0  0  0
    7.3640   12.4810    5.0540 N   0  0  0  0  0  0  0  0  0  0  0  0
    8.1410   11.8520    6.0410 C   0  0  0  0  0  0  0  0  0  0  0  0
    7.7610   11.4810    7.1390 O   0  0  0  0  0  0  0  0  0  0  0  0
    9.4380   11.7290    5.5050 N   0  0  0  0  0  0  0  0  0  0  0  0
   10.5780   11.1570    6.1610 C   0  0  0  0  0  0  0  0  0  0  0  0
    9.4370   12.3010    4.2320 C   0  0  0  0  0  0  0  0  0  0  0  0
   10.3870   12.4770    3.2780 C   0  0  0  0  0  0  0  0  0  0  0  0
   10.0860   13.0840    2.1080 N   0  0  0  0  0  0  0  0  0  0  0  0
    8.8040   13.5140    1.9230 C   0  0  0  0  0  0  0  0  0  0  0  0
    8.4720   14.1650    0.6390 C   0  0  0  0  0  0  0  0  0  0  0  0
    9.4150   14.9440   -0.0590 C   0  0  0  0  0  0  0  0  0  0  0  0
    9.1000   15.5580   -1.2760 C   0  0  0  0  0  0  0  0  0  0  0  0
    7.8300   15.4080   -1.8250 C   0  0  0  0  0  0  0  0  0  0  0  0
    6.8770   14.6440   -1.1590 C   0  0  0  0  0  0  0  0  0  0  0  0
    7.1950   14.0310    0.0560 C   0  0  0  0  0  0  0  0  0  0  0  0
    7.8110   13.3800    2.8280 N   0  0  0  0  0  0  0  0  0  0  0  0
    8.1730   12.7700    3.9510 C   0  0  0  0  0  0  0  0  0  0  0  0
    6.0027   14.0679   10.5040 H   0  0  0  0  0  0  0  0  0  0  0  0
    4.9789   13.0226    9.4618 H   0  0  0  0  0  0  0  0  0  0  0  0
    6.7636   12.8183    9.4618 H   0  0  0  0  0  0  0  0  0  0  0  0
    5.7049   15.5347    8.7740 H   0  0  0  0  0  0  0  0  0  0  0  0
    7.1160   14.5907    8.1038 H   0  0  0  0  0  0  0  0  0  0  0  0
    3.6683   12.8776    7.0031 H   0  0  0  0  0  0  0  0  0  0  0  0
    3.6597   13.9406    8.4923 H   0  0  0  0  0  0  0  0  0  0  0  0
    3.8317   16.5663    7.7226 H   0  0  0  0  0  0  0  0  0  0  0  0
    0.5639   17.5308    5.0842 H   0  0  0  0  0  0  0  0  0  0  0  0
    0.3008   15.1182    4.5196 H   0  0  0  0  0  0  0  0  0  0  0  0
    5.4472   12.0958    5.7267 H   0  0  0  0  0  0  0  0  0  0  0  0
    5.6102   13.0310    4.1558 H   0  0  0  0  0  0  0  0  0  0  0  0
   10.4455   11.2235    7.2510 H   0  0  0  0  0  0  0  0  0  0  0  0
   10.6786   10.1016    5.8676 H   0  0  0  0  0  0  0  0  0  0  0  0
   11.4842   11.7072    5.8676 H   0  0  0  0  0  0  0  0  0  0  0  0
   11.4123   12.1220    3.4589 H   0  0  0  0  0  0  0  0  0  0  0  0
   10.4228   15.0727    0.3625 H   0  0  0  0  0  0  0  0  0  0  0  0
    9.8571   16.1601   -1.7996 H   0  0  0  0  0  0  0  0  0  0  0  0
    7.5808   15.8913   -2.7812 H   0  0  0  0  0  0  0  0  0  0  0  0
    5.8720   14.5223   -1.5892 H   0  0  0  0  0  0  0  0  0  0  0  0
    6.4308   13.4295    0.5699 H   0  0  0  0  0  0  0  0  0  0  0  0
  1  2  1  0
  2  3  1  0
  3  4  1  0
  4  5  1  0
  5  6  2  0
  6  7  1  0
  7  8  1  0
  7  9  2  0
  9 10  1  0
 10 11  2  0
 11 12  1  0
 12 13  1  0
 12 14  1  0
 12 15  1  0
  3 16  1  0
 16 17  2  0
 16 18  1  0
 18 19  1  0
 19 20  1  0
 20 21  2  0
 20 22  1  0
 22 23  1  0
 22 24  1  0
 24 25  2  0
 25 26  1  0
 26 27  2  0
 27 28  1  0
 28 29  2  0
 29 30  1  0
 30 31  2  0
 31 32  1  0
 32 33  2  0
 27 34  1  0
 34 35  2  0
 11  5  1  0
 35 19  1  0
 35 24  1  0
 33 28  1  0
  1 36  1  0
  1 37  1  0
  1 38  1  0
  2 39  1  0
  2 40  1  0
  4 41  1  0
  4 42  1  0
  6 43  1  0
  9 44  1  0
 10 45  1  0
 18 46  1  0
 18 47  1  0
 23 48  1  0
 23 49  1  0
 23 50  1  0
 25 51  1  0
 29 52  1  0
 30 53  1  0
 31 54  1  0
 32 55  1  0
 33 56  1  0
M  END
>  <meeko>  (4) 
{"is_sidechain": [false], "free_energy": -6.675, "intermolecular_energy": -9.937, "internal_energy": -1.605}

$$$$
A17_meeko_out
     RDKit          3D

 56 59  0  0  0  0  0  0  0  0999 V2000
    7.0480   16.7730    5.0990 C   0  0  0  0  0  0  0  0  0  0  0  0
    5.7950   15.9110    5.1200 C   0  0  0  0  0  0  0  0  0  0  0  0
    5.6410   15.1410    6.3590 N   0  0  0  0  0  0  0  0  0  0  0  0
    4.3940   15.3070    7.1120 C   0  0  0  0  0  0  0  0  0  0  0  0
    3.1520   14.8940    6.3410 C   0  0  0  0  0  0  0  0  0  0  0  0
    3.0250   13.5490    5.9430 C   0  0  0  0  0  0  0  0  0  0  0  0
    1.9110   13.1190    5.2330 C   0  0  0  0  0  0  0  0  0  0  0  0
    1.8180   11.8370    4.8590 F   0  0  0  0  0  0  0  0  0  0  0  0
    0.8920   13.9990    4.9070 C   0  0  0  0  0  0  0  0  0  0  0  0
    0.9880   15.3340    5.3030 C   0  0  0  0  0  0  0  0  0  0  0  0
    2.1070   15.8000    6.0260 C   0  0  0  0  0  0  0  0  0  0  0  0
    2.1510   17.2550    6.4420 C   0  0  0  0  0  0  0  0  0  0  0  0
    2.2120   17.4110    7.7930 F   0  0  0  0  0  0  0  0  0  0  0  0
    1.0660   17.9730    6.0370 F   0  0  0  0  0  0  0  0  0  0  0  0
    3.2320   17.9090    5.9360 F   0  0  0  0  0  0  0  0  0  0  0  0
    6.5650   14.2050    6.8240 C   0  0  0  0  0  0  0  0  0  0  0  0
    7.3550   14.4800    7.7350 O   0  0  0  0  0  0  0  0  0  0  0  0
    6.5800   12.7970    6.2150 C   0  0  0  0  0  0  0  0  0  0  0  0
    7.8170   12.4340    5.5720 N   0  0  0  0  0  0  0  0  0  0  0  0
    8.8780   11.7190    6.1520 C   0  0  0  0  0  0  0  0  0  0  0  0
    8.9020   11.2290    7.2690 O   0  0  0  0  0  0  0  0  0  0  0  0
    9.9020   11.6760    5.1840 N   0  0  0  0  0  0  0  0  0  0  0  0
   11.1870   11.0590    5.3350 C   0  0  0  0  0  0  0  0  0  0  0  0
    9.4650   12.3780    4.0600 C   0  0  0  0  0  0  0  0  0  0  0  0
   10.0220   12.6690    2.8570 C   0  0  0  0  0  0  0  0  0  0  0  0
    9.3420   13.3890    1.9370 N   0  0  0  0  0  0  0  0  0  0  0  0
    8.0860   13.8130    2.2610 C   0  0  0  0  0  0  0  0  0  0  0  0
    7.3370   14.5900    1.2510 C   0  0  0  0  0  0  0  0  0  0  0  0
    6.7180   13.9660    0.1500 C   0  0  0  0  0  0  0  0  0  0  0  0
    6.0080   14.7020   -0.8050 C   0  0  0  0  0  0  0  0  0  0  0  0
    5.8990   16.0840   -0.6800 C   0  0  0  0  0  0  0  0  0  0  0  0
    6.4990   16.7290    0.3970 C   0  0  0  0  0  0  0  0  0  0  0  0
    7.2070   15.9900    1.3490 C   0  0  0  0  0  0  0  0  0  0  0  0
    7.4710   13.5680    3.4380 N   0  0  0  0  0  0  0  0  0  0  0  0
    8.1930   12.8510    4.2920 C   0  0  0  0  0  0  0  0  0  0  0  0
    7.3618   16.9889    6.1309 H   0  0  0  0  0  0  0  0  0  0  0  0
    7.8532   16.2368    4.5754 H   0  0  0  0  0  0  0  0  0  0  0  0
    6.8351   17.7167    4.5754 H   0  0  0  0  0  0  0  0  0  0  0  0
    4.9187   16.5659    5.0048 H   0  0  0  0  0  0  0  0  0  0  0  0
    5.8833   15.1878    4.2959 H   0  0  0  0  0  0  0  0  0  0  0  0
    4.4555   14.6949    8.0239 H   0  0  0  0  0  0  0  0  0  0  0  0
    4.2927   16.3802    7.3310 H   0  0  0  0  0  0  0  0  0  0  0  0
    3.8177   12.8301    6.1975 H   0  0  0  0  0  0  0  0  0  0  0  0
    0.0157   13.6491    4.3416 H   0  0  0  0  0  0  0  0  0  0  0  0
    0.1788   16.0339    5.0476 H   0  0  0  0  0  0  0  0  0  0  0  0
    6.3867   12.0730    7.0203 H   0  0  0  0  0  0  0  0  0  0  0  0
    5.8077   12.7883    5.4318 H   0  0  0  0  0  0  0  0  0  0  0  0
   11.4172   10.9485    6.4049 H   0  0  0  0  0  0  0  0  0  0  0  0
   11.1762   10.0679    4.8580 H   0  0  0  0  0  0  0  0  0  0  0  0
   11.9537   11.6872    4.8580 H   0  0  0  0  0  0  0  0  0  0  0  0
   11.0380   12.3150    2.6281 H   0  0  0  0  0  0  0  0  0  0  0  0
    6.7947   12.8744    0.0385 H   0  0  0  0  0  0  0  0  0  0  0  0
    5.5356   14.1881   -1.6552 H   0  0  0  0  0  0  0  0  0  0  0  0
    5.3407   16.6639   -1.4297 H   0  0  0  0  0  0  0  0  0  0  0  0
    6.4161   17.8211    0.4993 H   0  0  0  0  0  0  0  0  0  0  0  0
    7.6743   16.5141    2.1957 H   0  0  0  0  0  0  0  0  0  0  0  0
  1  2  1  0
  2  3  1  0
  3  4  1  0
  4  5  1  0
  5  6  2  0
  6  7  1  0
  7  8  1  0
  7  9  2  0
  9 10  1  0
 10 11  2  0
 11 12  1  0
 12 13  1  0
 12 14  1  0
 12 15  1  0
  3 16  1  0
 16 17  2  0
 16 18  1  0
 18 19  1  0
 19 20  1  0
 20 21  2  0
 20 22  1  0
 22 23  1  0
 22 24  1  0
 24 25  2  0
 25 26  1  0
 26 27  2  0
 27 28  1  0
 28 29  2  0
 29 30  1  0
 30 31  2  0
 31 32  1  0
 32 33  2  0
 27 34  1  0
 34 35  2  0
 11  5  1  0
 35 19  1  0
 35 24  1  0
 33 28  1  0
  1 36  1  0
  1 37  1  0
  1 38  1  0
  2 39  1  0
  2 40  1  0
  4 41  1  0
  4 42  1  0
  6 43  1  0
  9 44  1  0
 10 45  1  0
 18 46  1  0
 18 47  1  0
 23 48  1  0
 23 49  1  0
 23 50  1  0
 25 51  1  0
 29 52  1  0
 30 53  1  0
 31 54  1  0
 32 55  1  0
 33 56  1  0
M  END
>  <meeko>  (5) 
{"is_sidechain": [false], "free_energy": -6.612, "intermolecular_energy": -9.486, "internal_energy": -1.963}

$$$$
A17_meeko_out
     RDKit          3D

 56 59  0  0  0  0  0  0  0  0999 V2000
    3.6040   15.3190    8.5550 C   0  0  0  0  0  0  0  0  0  0  0  0
    3.3790   15.9310    7.1800 C   0  0  0  0  0  0  0  0  0  0  0  0
    3.3710   14.9400    6.0990 N   0  0  0  0  0  0  0  0  0  0  0  0
    2.1380   14.7970    5.3180 C   0  0  0  0  0  0  0  0  0  0  0  0
    0.8700   14.8980    6.1490 C   0  0  0  0  0  0  0  0  0  0  0  0
    0.1540   16.1110    6.1370 C   0  0  0  0  0  0  0  0  0  0  0  0
   -1.0100   16.2580    6.8810 C   0  0  0  0  0  0  0  0  0  0  0  0
   -1.6670   17.4230    6.8590 F   0  0  0  0  0  0  0  0  0  0  0  0
   -1.5020   15.2120    7.6460 C   0  0  0  0  0  0  0  0  0  0  0  0
   -0.8180   13.9960    7.6620 C   0  0  0  0  0  0  0  0  0  0  0  0
    0.3660   13.8170    6.9160 C   0  0  0  0  0  0  0  0  0  0  0  0
    1.0590   12.4710    6.9610 C   0  0  0  0  0  0  0  0  0  0  0  0
    2.1720   12.4820    7.7440 F   0  0  0  0  0  0  0  0  0  0  0  0
    1.4710   12.0260    5.7410 F   0  0  0  0  0  0  0  0  0  0  0  0
    0.2580   11.4880    7.4570 F   0  0  0  0  0  0  0  0  0  0  0  0
    4.4790   14.1860    5.7140 C   0  0  0  0  0  0  0  0  0  0  0  0
    4.3610   13.0120    5.3440 O   0  0  0  0  0  0  0  0  0  0  0  0
    5.8690   14.8350    5.7190 C   0  0  0  0  0  0  0  0  0  0  0  0
    6.9660   13.9040    5.6360 N   0  0  0  0  0  0  0  0  0  0  0  0
    7.5610   13.2210    6.7110 C   0  0  0  0  0  0  0  0  0  0  0  0
    7.2050   13.2480    7.8770 O   0  0  0  0  0  0  0  0  0  0  0  0
    8.6400   12.4940    6.1680 N   0  0  0  0  0  0  0  0  0  0  0  0
    9.5490   11.6560    6.8940 C   0  0  0  0  0  0  0  0  0  0  0  0
    8.7010   12.7650    4.8010 C   0  0  0  0  0  0  0  0  0  0  0  0
    9.5230   12.3650    3.7970 C   0  0  0  0  0  0  0  0  0  0  0  0
    9.3350   12.8050    2.5330 N   0  0  0  0  0  0  0  0  0  0  0  0
    8.2980   13.6620    2.3040 C   0  0  0  0  0  0  0  0  0  0  0  0
    8.0850   14.1330    0.9200 C   0  0  0  0  0  0  0  0  0  0  0  0
    6.8510   13.9590    0.2630 C   0  0  0  0  0  0  0  0  0  0  0  0
    6.6490   14.4070   -1.0470 C   0  0  0  0  0  0  0  0  0  0  0  0
    7.6800   15.0410   -1.7340 C   0  0  0  0  0  0  0  0  0  0  0  0
    8.9100   15.2290   -1.1110 C   0  0  0  0  0  0  0  0  0  0  0  0
    9.1090   14.7800    0.1980 C   0  0  0  0  0  0  0  0  0  0  0  0
    7.4460   14.1080    3.2510 N   0  0  0  0  0  0  0  0  0  0  0  0
    7.6840   13.6320    4.4680 C   0  0  0  0  0  0  0  0  0  0  0  0
    3.3349   16.0511    9.3307 H   0  0  0  0  0  0  0  0  0  0  0  0
    2.9769   14.4219    8.6641 H   0  0  0  0  0  0  0  0  0  0  0  0
    4.6629   15.0417    8.6641 H   0  0  0  0  0  0  0  0  0  0  0  0
    2.4100   16.4516    7.1837 H   0  0  0  0  0  0  0  0  0  0  0  0
    4.2170   16.6170    6.9873 H   0  0  0  0  0  0  0  0  0  0  0  0
    2.1168   15.5894    4.5554 H   0  0  0  0  0  0  0  0  0  0  0  0
    2.1529   13.7890    4.8778 H   0  0  0  0  0  0  0  0  0  0  0  0
    0.5211   16.9524    5.5310 H   0  0  0  0  0  0  0  0  0  0  0  0
   -2.4225   15.3393    8.2346 H   0  0  0  0  0  0  0  0  0  0  0  0
   -1.2082   13.1635    8.2660 H   0  0  0  0  0  0  0  0  0  0  0  0
    5.9322   15.5173    4.8585 H   0  0  0  0  0  0  0  0  0  0  0  0
    5.9693   15.3497    6.6860 H   0  0  0  0  0  0  0  0  0  0  0  0
    9.3954   11.7976    7.9740 H   0  0  0  0  0  0  0  0  0  0  0  0
    9.3658   10.6034    6.6325 H   0  0  0  0  0  0  0  0  0  0  0  0
   10.5833   11.9241    6.6325 H   0  0  0  0  0  0  0  0  0  0  0  0
   10.3514   11.6749    4.0149 H   0  0  0  0  0  0  0  0  0  0  0  0
    6.0266   13.4590    0.7925 H   0  0  0  0  0  0  0  0  0  0  0  0
    5.6742   14.2579   -1.5345 H   0  0  0  0  0  0  0  0  0  0  0  0
    7.5233   15.3919   -2.7647 H   0  0  0  0  0  0  0  0  0  0  0  0
    9.7270   15.7317   -1.6493 H   0  0  0  0  0  0  0  0  0  0  0  0
   10.0875   14.9351    0.6760 H   0  0  0  0  0  0  0  0  0  0  0  0
  1  2  1  0
  2  3  1  0
  3  4  1  0
  4  5  1  0
  5  6  2  0
  6  7  1  0
  7  8  1  0
  7  9  2  0
  9 10  1  0
 10 11  2  0
 11 12  1  0
 12 13  1  0
 12 14  1  0
 12 15  1  0
  3 16  1  0
 16 17  2  0
 16 18  1  0
 18 19  1  0
 19 20  1  0
 20 21  2  0
 20 22  1  0
 22 23  1  0
 22 24  1  0
 24 25  2  0
 25 26  1  0
 26 27  2  0
 27 28  1  0
 28 29  2  0
 29 30  1  0
 30 31  2  0
 31 32  1  0
 32 33  2  0
 27 34  1  0
 34 35  2  0
 11  5  1  0
 35 19  1  0
 35 24  1  0
 33 28  1  0
  1 36  1  0
  1 37  1  0
  1 38  1  0
  2 39  1  0
  2 40  1  0
  4 41  1  0
  4 42  1  0
  6 43  1  0
  9 44  1  0
 10 45  1  0
 18 46  1  0
 18 47  1  0
 23 48  1  0
 23 49  1  0
 23 50  1  0
 25 51  1  0
 29 52  1  0
 30 53  1  0
 31 54  1  0
 32 55  1  0
 33 56  1  0
M  END
>  <meeko>  (6) 
{"is_sidechain": [false], "free_energy": -6.567, "intermolecular_energy": -9.943, "internal_energy": -1.44}

$$$$
A17_meeko_out
     RDKit          3D

 56 59  0  0  0  0  0  0  0  0999 V2000
    1.5300   15.0560    9.2080 C   0  0  0  0  0  0  0  0  0  0  0  0
    2.7710   15.8760    8.8880 C   0  0  0  0  0  0  0  0  0  0  0  0
    3.7550   15.1480    8.0820 N   0  0  0  0  0  0  0  0  0  0  0  0
    3.8300   15.4630    6.6520 C   0  0  0  0  0  0  0  0  0  0  0  0
    2.4770   15.5090    5.9620 C   0  0  0  0  0  0  0  0  0  0  0  0
    1.8850   16.7660    5.7270 C   0  0  0  0  0  0  0  0  0  0  0  0
    0.6480   16.8650    5.1040 C   0  0  0  0  0  0  0  0  0  0  0  0
    0.1040   18.0700    4.8990 F   0  0  0  0  0  0  0  0  0  0  0  0
   -0.0320   15.7310    4.6880 C   0  0  0  0  0  0  0  0  0  0  0  0
    0.5410   14.4760    4.8960 C   0  0  0  0  0  0  0  0  0  0  0  0
    1.7960   14.3440    5.5260 C   0  0  0  0  0  0  0  0  0  0  0  0
    2.3750   12.9570    5.7140 C   0  0  0  0  0  0  0  0  0  0  0  0
    1.8190   12.0410    4.8730 F   0  0  0  0  0  0  0  0  0  0  0  0
    2.2020   12.4570    6.9690 F   0  0  0  0  0  0  0  0  0  0  0  0
    3.7160   12.9160    5.4840 F   0  0  0  0  0  0  0  0  0  0  0  0
    4.6770   14.2360    8.5990 C   0  0  0  0  0  0  0  0  0  0  0  0
    4.3080   13.2280    9.2130 O   0  0  0  0  0  0  0  0  0  0  0  0
    6.1760   14.4730    8.3740 C   0  0  0  0  0  0  0  0  0  0  0  0
    6.9110   13.3070    7.9570 N   0  0  0  0  0  0  0  0  0  0  0  0
    7.3830   12.2780    8.7900 C   0  0  0  0  0  0  0  0  0  0  0  0
    7.1910   12.1670    9.9890 O   0  0  0  0  0  0  0  0  0  0  0  0
    8.1120   11.4020    7.9620 N   0  0  0  0  0  0  0  0  0  0  0  0
    8.7930   10.2100    8.3770 C   0  0  0  0  0  0  0  0  0  0  0  0
    8.0960   11.9170    6.6650 C   0  0  0  0  0  0  0  0  0  0  0  0
    8.6320   11.5130    5.4850 C   0  0  0  0  0  0  0  0  0  0  0  0
    8.4450   12.2360    4.3580 N   0  0  0  0  0  0  0  0  0  0  0  0
    7.7080   13.3810    4.4500 C   0  0  0  0  0  0  0  0  0  0  0  0
    7.4930   14.1650    3.2160 C   0  0  0  0  0  0  0  0  0  0  0  0
    7.3140   15.5620    3.2500 C   0  0  0  0  0  0  0  0  0  0  0  0
    7.1130   16.3030    2.0810 C   0  0  0  0  0  0  0  0  0  0  0  0
    7.0860   15.6630    0.8460 C   0  0  0  0  0  0  0  0  0  0  0  0
    7.2600   14.2840    0.7790 C   0  0  0  0  0  0  0  0  0  0  0  0
    7.4610   13.5460    1.9500 C   0  0  0  0  0  0  0  0  0  0  0  0
    7.1520   13.8480    5.5880 N   0  0  0  0  0  0  0  0  0  0  0  0
    7.3690   13.0860    6.6550 C   0  0  0  0  0  0  0  0  0  0  0  0
    1.4129   14.9786   10.2990 H   0  0  0  0  0  0  0  0  0  0  0  0
    0.6448   15.5476    8.7782 H   0  0  0  0  0  0  0  0  0  0  0  0
    1.6351   14.0489    8.7782 H   0  0  0  0  0  0  0  0  0  0  0  0
    2.4623   16.7748    8.3341 H   0  0  0  0  0  0  0  0  0  0  0  0
    3.2532   16.1241    9.8450 H   0  0  0  0  0  0  0  0  0  0  0  0
    4.3109   16.4458    6.5382 H   0  0  0  0  0  0  0  0  0  0  0  0
    4.4049   14.6551    6.1759 H   0  0  0  0  0  0  0  0  0  0  0  0
    2.4095   17.6805    6.0411 H   0  0  0  0  0  0  0  0  0  0  0  0
   -1.0133   15.8196    4.1989 H   0  0  0  0  0  0  0  0  0  0  0  0
    0.0052   13.5748    4.5632 H   0  0  0  0  0  0  0  0  0  0  0  0
    6.2888   15.2452    7.5987 H   0  0  0  0  0  0  0  0  0  0  0  0
    6.5936   14.7737    9.3462 H   0  0  0  0  0  0  0  0  0  0  0  0
    8.8182   10.1658    9.4758 H   0  0  0  0  0  0  0  0  0  0  0  0
    8.2617    9.3294    7.9867 H   0  0  0  0  0  0  0  0  0  0  0  0
    9.8214   10.2205    7.9867 H   0  0  0  0  0  0  0  0  0  0  0  0
    9.2249   10.5873    5.4454 H   0  0  0  0  0  0  0  0  0  0  0  0
    7.3328   16.0823    4.2190 H   0  0  0  0  0  0  0  0  0  0  0  0
    6.9761   17.3930    2.1381 H   0  0  0  0  0  0  0  0  0  0  0  0
    6.9277   16.2448   -0.0740 H   0  0  0  0  0  0  0  0  0  0  0  0
    7.2395   13.7740   -0.1954 H   0  0  0  0  0  0  0  0  0  0  0  0
    7.5973   12.4566    1.8814 H   0  0  0  0  0  0  0  0  0  0  0  0
  1  2  1  0
  2  3  1  0
  3  4  1  0
  4  5  1  0
  5  6  2  0
  6  7  1  0
  7  8  1  0
  7  9  2  0
  9 10  1  0
 10 11  2  0
 11 12  1  0
 12 13  1  0
 12 14  1  0
 12 15  1  0
  3 16  1  0
 16 17  2  0
 16 18  1  0
 18 19  1  0
 19 20  1  0
 20 21  2  0
 20 22  1  0
 22 23  1  0
 22 24  1  0
 24 25  2  0
 25 26  1  0
 26 27  2  0
 27 28  1  0
 28 29  2  0
 29 30  1  0
 30 31  2  0
 31 32  1  0
 32 33  2  0
 27 34  1  0
 34 35  2  0
 11  5  1  0
 35 19  1  0
 35 24  1  0
 33 28  1  0
  1 36  1  0
  1 37  1  0
  1 38  1  0
  2 39  1  0
  2 40  1  0
  4 41  1  0
  4 42  1  0
  6 43  1  0
  9 44  1  0
 10 45  1  0
 18 46  1  0
 18 47  1  0
 23 48  1  0
 23 49  1  0
 23 50  1  0
 25 51  1  0
 29 52  1  0
 30 53  1  0
 31 54  1  0
 32 55  1  0
 33 56  1  0
M  END
>  <meeko>  (7) 
{"is_sidechain": [false], "free_energy": -6.483, "intermolecular_energy": -9.645, "internal_energy": -1.615}

$$$$
A17_meeko_out
     RDKit          3D

 56 59  0  0  0  0  0  0  0  0999 V2000
    3.4180   16.8980    5.9290 C   0  0  0  0  0  0  0  0  0  0  0  0
    3.7990   16.2010    7.2260 C   0  0  0  0  0  0  0  0  0  0  0  0
    4.3340   14.8510    7.0230 N   0  0  0  0  0  0  0  0  0  0  0  0
    3.5420   13.7240    7.5260 C   0  0  0  0  0  0  0  0  0  0  0  0
    2.0790   14.0580    7.7610 C   0  0  0  0  0  0  0  0  0  0  0  0
    1.7040   14.5850    9.0130 C   0  0  0  0  0  0  0  0  0  0  0  0
    0.3790   14.9040    9.2820 C   0  0  0  0  0  0  0  0  0  0  0  0
    0.0470   15.3960   10.4820 F   0  0  0  0  0  0  0  0  0  0  0  0
   -0.6060   14.7220    8.3240 C   0  0  0  0  0  0  0  0  0  0  0  0
   -0.2560   14.2150    7.0720 C   0  0  0  0  0  0  0  0  0  0  0  0
    1.0810   13.8830    6.7690 C   0  0  0  0  0  0  0  0  0  0  0  0
    1.4040   13.3490    5.3890 C   0  0  0  0  0  0  0  0  0  0  0  0
    0.3510   13.4450    4.5320 F   0  0  0  0  0  0  0  0  0  0  0  0
    1.7670   12.0360    5.3810 F   0  0  0  0  0  0  0  0  0  0  0  0
    2.4330   14.0170    4.7990 F   0  0  0  0  0  0  0  0  0  0  0  0
    5.5020   14.5650    6.3150 C   0  0  0  0  0  0  0  0  0  0  0  0
    6.4580   15.3480    6.3100 O   0  0  0  0  0  0  0  0  0  0  0  0
    5.6130   13.2380    5.5530 C   0  0  0  0  0  0  0  0  0  0  0  0
    6.9540   12.7250    5.4350 N   0  0  0  0  0  0  0  0  0  0  0  0
    7.7020   12.1070    6.4520 C   0  0  0  0  0  0  0  0  0  0  0  0
    7.3180   11.8400    7.5780 O   0  0  0  0  0  0  0  0  0  0  0  0
    8.9750   11.8500    5.9060 N   0  0  0  0  0  0  0  0  0  0  0  0
   10.0820   11.2390    6.5830 C   0  0  0  0  0  0  0  0  0  0  0  0
    8.9910   12.3330    4.5970 C   0  0  0  0  0  0  0  0  0  0  0  0
    9.9320   12.3720    3.6190 C   0  0  0  0  0  0  0  0  0  0  0  0
    9.6540   12.9190    2.4140 N   0  0  0  0  0  0  0  0  0  0  0  0
    8.4040   13.4310    2.2200 C   0  0  0  0  0  0  0  0  0  0  0  0
    8.0960   14.0180    0.8990 C   0  0  0  0  0  0  0  0  0  0  0  0
    9.0810   14.6700    0.1330 C   0  0  0  0  0  0  0  0  0  0  0  0
    8.7880   15.2240   -1.1190 C   0  0  0  0  0  0  0  0  0  0  0  0
    7.4990   15.1370   -1.6350 C   0  0  0  0  0  0  0  0  0  0  0  0
    6.5040   14.4980   -0.9020 C   0  0  0  0  0  0  0  0  0  0  0  0
    6.8000   13.9460    0.3480 C   0  0  0  0  0  0  0  0  0  0  0  0
    7.4220   13.4340    3.1460 N   0  0  0  0  0  0  0  0  0  0  0  0
    7.7600   12.8760    4.3030 C   0  0  0  0  0  0  0  0  0  0  0  0
    2.9019   17.8421    6.1580 H   0  0  0  0  0  0  0  0  0  0  0  0
    4.3263   17.1088    5.3455 H   0  0  0  0  0  0  0  0  0  0  0  0
    2.7502   16.2472    5.3455 H   0  0  0  0  0  0  0  0  0  0  0  0
    4.5627   16.8062    7.7364 H   0  0  0  0  0  0  0  0  0  0  0  0
    2.8813   16.1014    7.8243 H   0  0  0  0  0  0  0  0  0  0  0  0
    3.5973   12.9065    6.7920 H   0  0  0  0  0  0  0  0  0  0  0  0
    3.9670   13.4444    8.5013 H   0  0  0  0  0  0  0  0  0  0  0  0
    2.4695   14.7457    9.7864 H   0  0  0  0  0  0  0  0  0  0  0  0
   -1.6528   14.9746    8.5484 H   0  0  0  0  0  0  0  0  0  0  0  0
   -1.0353   14.0719    6.3090 H   0  0  0  0  0  0  0  0  0  0  0  0
    5.0038   12.4882    6.0790 H   0  0  0  0  0  0  0  0  0  0  0  0
    5.2636   13.4362    4.5290 H   0  0  0  0  0  0  0  0  0  0  0  0
    9.9364   11.3194    7.6704 H   0  0  0  0  0  0  0  0  0  0  0  0
   10.1453   10.1782    6.2989 H   0  0  0  0  0  0  0  0  0  0  0  0
   11.0133   11.7508    6.2989 H   0  0  0  0  0  0  0  0  0  0  0  0
   10.9316   11.9540    3.8090 H   0  0  0  0  0  0  0  0  0  0  0  0
   10.1050   14.7460    0.5275 H   0  0  0  0  0  0  0  0  0  0  0  0
    9.5777   15.7285   -1.6951 H   0  0  0  0  0  0  0  0  0  0  0  0
    7.2674   15.5717   -2.6186 H   0  0  0  0  0  0  0  0  0  0  0  0
    5.4835   14.4270   -1.3063 H   0  0  0  0  0  0  0  0  0  0  0  0
    6.0027   13.4435    0.9153 H   0  0  0  0  0  0  0  0  0  0  0  0
  1  2  1  0
  2  3  1  0
  3  4  1  0
  4  5  1  0
  5  6  2  0
  6  7  1  0
  7  8  1  0
  7  9  2  0
  9 10  1  0
 10 11  2  0
 11 12  1  0
 12 13  1  0
 12 14  1  0
 12 15  1  0
  3 16  1  0
 16 17  2  0
 16 18  1  0
 18 19  1  0
 19 20  1  0
 20 21  2  0
 20 22  1  0
 22 23  1  0
 22 24  1  0
 24 25  2  0
 25 26  1  0
 26 27  2  0
 27 28  1  0
 28 29  2  0
 29 30  1  0
 30 31  2  0
 31 32  1  0
 32 33  2  0
 27 34  1  0
 34 35  2  0
 11  5  1  0
 35 19  1  0
 35 24  1  0
 33 28  1  0
  1 36  1  0
  1 37  1  0
  1 38  1  0
  2 39  1  0
  2 40  1  0
  4 41  1  0
  4 42  1  0
  6 43  1  0
  9 44  1  0
 10 45  1  0
 18 46  1  0
 18 47  1  0
 23 48  1  0
 23 49  1  0
 23 50  1  0
 25 51  1  0
 29 52  1  0
 30 53  1  0
 31 54  1  0
 32 55  1  0
 33 56  1  0
M  END
>  <meeko>  (8) 
{"is_sidechain": [false], "free_energy": -6.483, "intermolecular_energy": -9.997, "internal_energy": -1.263}

$$$$
A17_meeko_out
     RDKit          3D

 56 59  0  0  0  0  0  0  0  0999 V2000
   11.5930   15.4570   -1.0270 C   0  0  0  0  0  0  0  0  0  0  0  0
   11.1410   15.4360    0.4250 C   0  0  0  0  0  0  0  0  0  0  0  0
    9.7160   15.1270    0.5840 N   0  0  0  0  0  0  0  0  0  0  0  0
    8.8920   15.0780   -0.6280 C   0  0  0  0  0  0  0  0  0  0  0  0
    7.7510   16.0820   -0.6340 C   0  0  0  0  0  0  0  0  0  0  0  0
    8.0640   17.4550   -0.6210 C   0  0  0  0  0  0  0  0  0  0  0  0
    7.0590   18.4150   -0.6220 C   0  0  0  0  0  0  0  0  0  0  0  0
    7.3830   19.7130   -0.6000 F   0  0  0  0  0  0  0  0  0  0  0  0
    5.7240   18.0460   -0.6470 C   0  0  0  0  0  0  0  0  0  0  0  0
    5.3890   16.6920   -0.6760 C   0  0  0  0  0  0  0  0  0  0  0  0
    6.3870   15.6950   -0.6760 C   0  0  0  0  0  0  0  0  0  0  0  0
    5.9650   14.2410   -0.7220 C   0  0  0  0  0  0  0  0  0  0  0  0
    6.2520   13.5770    0.4320 F   0  0  0  0  0  0  0  0  0  0  0  0
    6.5640   13.5270   -1.7160 F   0  0  0  0  0  0  0  0  0  0  0  0
    4.6270   14.0930   -0.9200 F   0  0  0  0  0  0  0  0  0  0  0  0
    9.1130   14.7980    1.7980 C   0  0  0  0  0  0  0  0  0  0  0  0
    8.9050   15.6550    2.6650 O   0  0  0  0  0  0  0  0  0  0  0  0
    8.6700   13.3510    2.0500 C   0  0  0  0  0  0  0  0  0  0  0  0
    8.9220   12.8710    3.3850 N   0  0  0  0  0  0  0  0  0  0  0  0
   10.0710   12.1920    3.8220 C   0  0  0  0  0  0  0  0  0  0  0  0
   11.0720   11.9580    3.1650 O   0  0  0  0  0  0  0  0  0  0  0  0
    9.8390   11.8460    5.1680 N   0  0  0  0  0  0  0  0  0  0  0  0
   10.7340   11.1270    6.0270 C   0  0  0  0  0  0  0  0  0  0  0  0
    8.5610   12.2880    5.5140 C   0  0  0  0  0  0  0  0  0  0  0  0
    7.8170   12.2210    6.6480 C   0  0  0  0  0  0  0  0  0  0  0  0
    6.5750   12.7530    6.6910 N   0  0  0  0  0  0  0  0  0  0  0  0
    6.0970   13.3490    5.5600 C   0  0  0  0  0  0  0  0  0  0  0  0
    4.7440   13.9410    5.6110 C   0  0  0  0  0  0  0  0  0  0  0  0
    3.5870   13.1490    5.4840 C   0  0  0  0  0  0  0  0  0  0  0  0
    2.3060   13.7110    5.5340 C   0  0  0  0  0  0  0  0  0  0  0  0
    2.1520   15.0830    5.7120 C   0  0  0  0  0  0  0  0  0  0  0  0
    3.2770   15.8910    5.8420 C   0  0  0  0  0  0  0  0  0  0  0  0
    4.5550   15.3270    5.7910 C   0  0  0  0  0  0  0  0  0  0  0  0
    6.7750   13.4470    4.3970 N   0  0  0  0  0  0  0  0  0  0  0  0
    7.9910   12.9100    4.4270 C   0  0  0  0  0  0  0  0  0  0  0  0
   12.6910   15.5080   -1.0685 H   0  0  0  0  0  0  0  0  0  0  0  0
   11.2491   14.5419   -1.5313 H   0  0  0  0  0  0  0  0  0  0  0  0
   11.1658   16.3363   -1.5313 H   0  0  0  0  0  0  0  0  0  0  0  0
   11.7256   14.6743    0.9618 H   0  0  0  0  0  0  0  0  0  0  0  0
   11.3032   16.4451    0.8316 H   0  0  0  0  0  0  0  0  0  0  0  0
    9.5377   15.2814   -1.4950 H   0  0  0  0  0  0  0  0  0  0  0  0
    8.4383   14.0767   -0.6672 H   0  0  0  0  0  0  0  0  0  0  0  0
    9.1174   17.7717   -0.6099 H   0  0  0  0  0  0  0  0  0  0  0  0
    4.9357   18.8132   -0.6440 H   0  0  0  0  0  0  0  0  0  0  0  0
    4.3295   16.3971   -0.6992 H   0  0  0  0  0  0  0  0  0  0  0  0
    7.5885   13.2851    1.8600 H   0  0  0  0  0  0  0  0  0  0  0  0
    9.2657   12.7201    1.3739 H   0  0  0  0  0  0  0  0  0  0  0  0
   10.4785   11.3323    7.0770 H   0  0  0  0  0  0  0  0  0  0  0  0
   10.6426   10.0484    5.8315 H   0  0  0  0  0  0  0  0  0  0  0  0
   11.7676   11.4488    5.8315 H   0  0  0  0  0  0  0  0  0  0  0  0
    8.2293   11.7286    7.5411 H   0  0  0  0  0  0  0  0  0  0  0  0
    3.6921   12.0633    5.3422 H   0  0  0  0  0  0  0  0  0  0  0  0
    1.4197   13.0675    5.4325 H   0  0  0  0  0  0  0  0  0  0  0  0
    1.1459   15.5260    5.7497 H   0  0  0  0  0  0  0  0  0  0  0  0
    3.1607   16.9754    5.9852 H   0  0  0  0  0  0  0  0  0  0  0  0
    5.4344   15.9798    5.8937 H   0  0  0  0  0  0  0  0  0  0  0  0
  1  2  1  0
  2  3  1  0
  3  4  1  0
  4  5  1  0
  5  6  2  0
  6  7  1  0
  7  8  1  0
  7  9  2  0
  9 10  1  0
 10 11  2  0
 11 12  1  0
 12 13  1  0
 12 14  1  0
 12 15  1  0
  3 16  1  0
 16 17  2  0
 16 18  1  0
 18 19  1  0
 19 20  1  0
 20 21  2  0
 20 22  1  0
 22 23  1  0
 22 24  1  0
 24 25  2  0
 25 26  1  0
 26 27  2  0
 27 28  1  0
 28 29  2  0
 29 30  1  0
 30 31  2  0
 31 32  1  0
 32 33  2  0
 27 34  1  0
 34 35  2  0
 11  5  1  0
 35 19  1  0
 35 24  1  0
 33 28  1  0
  1 36  1  0
  1 37  1  0
  1 38  1  0
  2 39  1  0
  2 40  1  0
  4 41  1  0
  4 42  1  0
  6 43  1  0
  9 44  1  0
 10 45  1  0
 18 46  1  0
 18 47  1  0
 23 48  1  0
 23 49  1  0
 23 50  1  0
 25 51  1  0
 29 52  1  0
 30 53  1  0
 31 54  1  0
 32 55  1  0
 33 56  1  0
M  END
>  <meeko>  (9) 
{"is_sidechain": [false], "free_energy": -6.442, "intermolecular_energy": -9.579, "internal_energy": -1.62}

$$$$
A17_meeko_out
     RDKit          3D

 56 59  0  0  0  0  0  0  0  0999 V2000
   -4.2820   18.5300   10.7780 C   0  0  0  0  0  0  0  0  0  0  0  0
   -4.2480   18.3790    9.2650 C   0  0  0  0  0  0  0  0  0  0  0  0
   -3.3290   17.3320    8.8060 N   0  0  0  0  0  0  0  0  0  0  0  0
   -2.2200   16.9660    9.6920 C   0  0  0  0  0  0  0  0  0  0  0  0
   -0.8770   17.5280    9.2590 C   0  0  0  0  0  0  0  0  0  0  0  0
   -0.7390   18.9250    9.1440 C   0  0  0  0  0  0  0  0  0  0  0  0
    0.4660   19.4910    8.7480 C   0  0  0  0  0  0  0  0  0  0  0  0
    0.5680   20.8220    8.6380 F   0  0  0  0  0  0  0  0  0  0  0  0
    1.5660   18.6980    8.4660 C   0  0  0  0  0  0  0  0  0  0  0  0
    1.4590   17.3120    8.5880 C   0  0  0  0  0  0  0  0  0  0  0  0
    0.2480   16.7080    8.9890 C   0  0  0  0  0  0  0  0  0  0  0  0
    0.1940   15.2000    9.1160 C   0  0  0  0  0  0  0  0  0  0  0  0
   -0.7000   14.6350    8.2580 F   0  0  0  0  0  0  0  0  0  0  0  0
   -0.1640   14.7680   10.3580 F   0  0  0  0  0  0  0  0  0  0  0  0
    1.3930   14.6110    8.8550 F   0  0  0  0  0  0  0  0  0  0  0  0
   -3.4870   16.6100    7.6230 C   0  0  0  0  0  0  0  0  0  0  0  0
   -3.4720   15.3730    7.6190 O   0  0  0  0  0  0  0  0  0  0  0  0
   -3.7150   17.3630    6.3070 C   0  0  0  0  0  0  0  0  0  0  0  0
   -2.6700   18.2920    5.9590 N   0  0  0  0  0  0  0  0  0  0  0  0
   -2.8160   19.6770    5.7710 C   0  0  0  0  0  0  0  0  0  0  0  0
   -3.8310   20.3310    5.9380 O   0  0  0  0  0  0  0  0  0  0  0  0
   -1.5550   20.1550    5.3620 N   0  0  0  0  0  0  0  0  0  0  0  0
   -1.2250   21.5130    5.0400 C   0  0  0  0  0  0  0  0  0  0  0  0
   -0.6840   19.0680    5.2810 C   0  0  0  0  0  0  0  0  0  0  0  0
    0.6220   18.9310    4.9350 C   0  0  0  0  0  0  0  0  0  0  0  0
    1.2160   17.7170    4.9500 N   0  0  0  0  0  0  0  0  0  0  0  0
    0.4610   16.6420    5.3190 C   0  0  0  0  0  0  0  0  0  0  0  0
    1.1150   15.3170    5.3480 C   0  0  0  0  0  0  0  0  0  0  0  0
    2.4550   15.1630    5.7510 C   0  0  0  0  0  0  0  0  0  0  0  0
    3.0720   13.9070    5.7800 C   0  0  0  0  0  0  0  0  0  0  0  0
    2.3600   12.7720    5.4050 C   0  0  0  0  0  0  0  0  0  0  0  0
    1.0340   12.8910    5.0020 C   0  0  0  0  0  0  0  0  0  0  0  0
    0.4200   14.1470    4.9740 C   0  0  0  0  0  0  0  0  0  0  0  0
   -0.8410   16.7000    5.6690 N   0  0  0  0  0  0  0  0  0  0  0  0
   -1.3600   17.9230    5.6380 C   0  0  0  0  0  0  0  0  0  0  0  0
   -4.0636   17.5599   11.2483 H   0  0  0  0  0  0  0  0  0  0  0  0
   -3.5273   19.2669   11.0900 H   0  0  0  0  0  0  0  0  0  0  0  0
   -5.2797   18.8724   11.0900 H   0  0  0  0  0  0  0  0  0  0  0  0
   -5.2614   18.1313    8.9162 H   0  0  0  0  0  0  0  0  0  0  0  0
   -3.8880   19.3324    8.8509 H   0  0  0  0  0  0  0  0  0  0  0  0
   -2.4440   17.3420   10.7012 H   0  0  0  0  0  0  0  0  0  0  0  0
   -2.1334   15.8699    9.6601 H   0  0  0  0  0  0  0  0  0  0  0  0
   -1.5963   19.5759    9.3706 H   0  0  0  0  0  0  0  0  0  0  0  0
    2.5145   19.1562    8.1490 H   0  0  0  0  0  0  0  0  0  0  0  0
    2.3322   16.6802    8.3682 H   0  0  0  0  0  0  0  0  0  0  0  0
   -3.7992   16.6224    5.4980 H   0  0  0  0  0  0  0  0  0  0  0  0
   -4.6295   17.9589    6.4431 H   0  0  0  0  0  0  0  0  0  0  0  0
   -1.0856   22.0865    5.9683 H   0  0  0  0  0  0  0  0  0  0  0  0
   -0.2954   21.5350    4.4524 H   0  0  0  0  0  0  0  0  0  0  0  0
   -2.0409   21.9592    4.4524 H   0  0  0  0  0  0  0  0  0  0  0  0
    1.2026   19.8173    4.6394 H   0  0  0  0  0  0  0  0  0  0  0  0
    3.0310   16.0511    6.0503 H   0  0  0  0  0  0  0  0  0  0  0  0
    4.1207   13.8172    6.0995 H   0  0  0  0  0  0  0  0  0  0  0  0
    2.8438   11.7844    5.4271 H   0  0  0  0  0  0  0  0  0  0  0  0
    0.4677   11.9960    4.7050 H   0  0  0  0  0  0  0  0  0  0  0  0
   -0.6292   14.2249    4.6530 H   0  0  0  0  0  0  0  0  0  0  0  0
  1  2  1  0
  2  3  1  0
  3  4  1  0
  4  5  1  0
  5  6  2  0
  6  7  1  0
  7  8  1  0
  7  9  2  0
  9 10  1  0
 10 11  2  0
 11 12  1  0
 12 13  1  0
 12 14  1  0
 12 15  1  0
  3 16  1  0
 16 17  2  0
 16 18  1  0
 18 19  1  0
 19 20  1  0
 20 21  2  0
 20 22  1  0
 22 23  1  0
 22 24  1  0
 24 25  2  0
 25 26  1  0
 26 27  2  0
 27 28  1  0
 28 29  2  0
 29 30  1  0
 30 31  2  0
 31 32  1  0
 32 33  2  0
 27 34  1  0
 34 35  2  0
 11  5  1  0
 35 19  1  0
 35 24  1  0
 33 28  1  0
  1 36  1  0
  1 37  1  0
  1 38  1  0
  2 39  1  0
  2 40  1  0
  4 41  1  0
  4 42  1  0
  6 43  1  0
  9 44  1  0
 10 45  1  0
 18 46  1  0
 18 47  1  0
 23 48  1  0
 23 49  1  0
 23 50  1  0
 25 51  1  0
 29 52  1  0
 30 53  1  0
 31 54  1  0
 32 55  1  0
 33 56  1  0
M  END
>  <meeko>  (10) 
{"is_sidechain": [false], "free_energy": -6.413, "intermolecular_energy": -7.55, "internal_energy": -3.607}

$$$$
