11595759
  -OEChem-07312515503D

 53 55  0     0  0  0  0  0  0999 V2000
   -0.4781   -1.9082   -1.4792 O   0  0  0  0  0  0  0  0  0  0  0  0
    5.4661    1.6645   -0.3652 O   0  0  0  0  0  0  0  0  0  0  0  0
   -2.1365    1.7742   -0.1012 N   0  0  0  0  0  0  0  0  0  0  0  0
    0.4040   -3.4949   -0.0379 N   0  0  0  0  0  0  0  0  0  0  0  0
   -0.8668    2.2251   -0.3003 N   0  0  0  0  0  0  0  0  0  0  0  0
   -3.2891   -0.2210    0.6021 N   0  0  0  0  0  0  0  0  0  0  0  0
   -0.8148    0.0631    0.4101 C   0  0  0  0  0  0  0  0  0  0  0  0
   -0.2978   -1.2548    0.8240 C   0  0  0  0  0  0  0  0  0  0  0  0
   -2.1339    0.4482    0.3356 C   0  0  0  0  0  0  0  0  0  0  0  0
   -0.0881    1.1904    0.0097 C   0  0  0  0  0  0  0  0  0  0  0  0
   -0.1370   -2.2395   -0.3402 C   0  0  0  0  0  0  0  0  0  0  0  0
   -3.3373    2.4750   -0.2844 C   0  0  0  0  0  0  0  0  0  0  0  0
    1.3445    1.3122   -0.0868 C   0  0  0  0  0  0  0  0  0  0  0  0
    0.6110   -4.5245   -1.0539 C   0  0  0  0  0  0  0  0  0  0  0  0
    0.8018   -3.8703    1.3135 C   0  0  0  0  0  0  0  0  0  0  0  0
   -4.3979    0.4366    0.4301 C   0  0  0  0  0  0  0  0  0  0  0  0
   -4.4996    1.8527   -0.0329 C   0  0  0  0  0  0  0  0  0  0  0  0
   -3.2774    3.8965   -0.7552 C   0  0  0  0  0  0  0  0  0  0  0  0
    1.9876    0.9928   -1.2797 C   0  0  0  0  0  0  0  0  0  0  0  0
    2.0779    1.7490    1.0132 C   0  0  0  0  0  0  0  0  0  0  0  0
   -0.6057   -5.4153   -1.1972 C   0  0  0  0  0  0  0  0  0  0  0  0
    2.2485   -3.5133    1.5853 C   0  0  0  0  0  0  0  0  0  0  0  0
   -5.6921   -0.2819    0.7208 C   0  0  0  0  0  0  0  0  0  0  0  0
    3.3744    1.1110   -1.3732 C   0  0  0  0  0  0  0  0  0  0  0  0
    3.4646    1.8672    0.9196 C   0  0  0  0  0  0  0  0  0  0  0  0
    4.1128    1.5481   -0.2736 C   0  0  0  0  0  0  0  0  0  0  0  0
    6.1589    2.1171    0.7970 C   0  0  0  0  0  0  0  0  0  0  0  0
   -0.9973   -1.6940    1.5452 H   0  0  0  0  0  0  0  0  0  0  0  0
    0.6628   -1.1283    1.3303 H   0  0  0  0  0  0  0  0  0  0  0  0
    0.8006   -4.0300   -2.0133 H   0  0  0  0  0  0  0  0  0  0  0  0
    1.5014   -5.1128   -0.8078 H   0  0  0  0  0  0  0  0  0  0  0  0
    0.1622   -3.3860    2.0550 H   0  0  0  0  0  0  0  0  0  0  0  0
    0.6519   -4.9483    1.4437 H   0  0  0  0  0  0  0  0  0  0  0  0
   -5.4685    2.3200   -0.1482 H   0  0  0  0  0  0  0  0  0  0  0  0
   -2.7188    4.5142   -0.0441 H   0  0  0  0  0  0  0  0  0  0  0  0
   -4.2761    4.3341   -0.8596 H   0  0  0  0  0  0  0  0  0  0  0  0
   -2.7862    3.9580   -1.7321 H   0  0  0  0  0  0  0  0  0  0  0  0
    1.4260    0.6500   -2.1454 H   0  0  0  0  0  0  0  0  0  0  0  0
    1.5862    2.0006    1.9498 H   0  0  0  0  0  0  0  0  0  0  0  0
   -0.8272   -5.9395   -0.2621 H   0  0  0  0  0  0  0  0  0  0  0  0
   -1.4920   -4.8319   -1.4684 H   0  0  0  0  0  0  0  0  0  0  0  0
   -0.4395   -6.1652   -1.9767 H   0  0  0  0  0  0  0  0  0  0  0  0
    2.9204   -4.0552    0.9113 H   0  0  0  0  0  0  0  0  0  0  0  0
    2.4440   -2.4460    1.4490 H   0  0  0  0  0  0  0  0  0  0  0  0
    2.5180   -3.7796    2.6122 H   0  0  0  0  0  0  0  0  0  0  0  0
   -6.5589    0.3589    0.5408 H   0  0  0  0  0  0  0  0  0  0  0  0
   -5.6996   -0.6008    1.7672 H   0  0  0  0  0  0  0  0  0  0  0  0
   -5.7660   -1.1645    0.0788 H   0  0  0  0  0  0  0  0  0  0  0  0
    3.8738    0.8609   -2.3052 H   0  0  0  0  0  0  0  0  0  0  0  0
    3.9764    2.2123    1.8115 H   0  0  0  0  0  0  0  0  0  0  0  0
    6.0484    1.4147    1.6303 H   0  0  0  0  0  0  0  0  0  0  0  0
    5.8633    3.1356    1.0705 H   0  0  0  0  0  0  0  0  0  0  0  0
    7.2241    2.1500    0.5460 H   0  0  0  0  0  0  0  0  0  0  0  0
  1 11  2  0  0  0  0
  2 26  1  0  0  0  0
  2 27  1  0  0  0  0
  3  5  1  0  0  0  0
  3  9  1  0  0  0  0
  3 12  1  0  0  0  0
  4 11  1  0  0  0  0
  4 14  1  0  0  0  0
  4 15  1  0  0  0  0
  5 10  2  0  0  0  0
  6  9  1  0  0  0  0
  6 16  2  0  0  0  0
  7  8  1  0  0  0  0
  7  9  2  0  0  0  0
  7 10  1  0  0  0  0
  8 11  1  0  0  0  0
  8 28  1  0  0  0  0
  8 29  1  0  0  0  0
 10 13  1  0  0  0  0
 12 17  2  0  0  0  0
 12 18  1  0  0  0  0
 13 19  2  0  0  0  0
 13 20  1  0  0  0  0
 14 21  1  0  0  0  0
 14 30  1  0  0  0  0
 14 31  1  0  0  0  0
 15 22  1  0  0  0  0
 15 32  1  0  0  0  0
 15 33  1  0  0  0  0
 16 17  1  0  0  0  0
 16 23  1  0  0  0  0
 17 34  1  0  0  0  0
 18 35  1  0  0  0  0
 18 36  1  0  0  0  0
 18 37  1  0  0  0  0
 19 24  1  0  0  0  0
 19 38  1  0  0  0  0
 20 25  2  0  0  0  0
 20 39  1  0  0  0  0
 21 40  1  0  0  0  0
 21 41  1  0  0  0  0
 21 42  1  0  0  0  0
 22 43  1  0  0  0  0
 22 44  1  0  0  0  0
 22 45  1  0  0  0  0
 23 46  1  0  0  0  0
 23 47  1  0  0  0  0
 23 48  1  0  0  0  0
 24 26  2  0  0  0  0
 24 49  1  0  0  0  0
 25 26  1  0  0  0  0
 25 50  1  0  0  0  0
 27 51  1  0  0  0  0
 27 52  1  0  0  0  0
 27 53  1  0  0  0  0
M  END
> <PUBCHEM_COMPOUND_CID>
11595759

> <PUBCHEM_CONFORMER_RMSD>
0.8

> <PUBCHEM_CONFORMER_DIVERSEORDER>
1
23
25
35
10
15
19
18
20
22
45
30
43
36
41
26
34
11
14
44
31
3
17
37
13
40
27
2
49
24
42
39
46
21
29
7
8
38
4
12
48
9
5
47
28
6
32
33
16

> <PUBCHEM_MMFF94_PARTIAL_CHARGES>
30
1 -0.57
10 0.23
11 0.57
12 -0.17
13 0.05
14 0.3
15 0.3
16 0.37
17 -0.14
18 0.14
19 -0.15
2 -0.36
20 -0.15
23 0.06
24 -0.15
25 -0.15
26 0.08
27 0.28
3 0.6
34 0.15
38 0.15
39 0.15
4 -0.66
49 0.15
5 -0.71
50 0.15
6 -0.58
7 -0.18
8 0.24
9 -0.03

> <PUBCHEM_EFFECTIVE_ROTOR_COUNT>
7

> <PUBCHEM_PHARMACOPHORE_FEATURES>
7
1 1 acceptor
1 2 acceptor
1 5 acceptor
1 6 acceptor
5 3 5 7 9 10 rings
6 13 19 20 24 25 26 rings
6 3 6 9 12 16 17 rings

> <PUBCHEM_HEAVY_ATOM_COUNT>
27

> <PUBCHEM_ATOM_DEF_STEREO_COUNT>
0

> <PUBCHEM_ATOM_UDEF_STEREO_COUNT>
0

> <PUBCHEM_BOND_DEF_STEREO_COUNT>
0

> <PUBCHEM_BOND_UDEF_STEREO_COUNT>
0

> <PUBCHEM_ISOTOPIC_ATOM_COUNT>
0

> <PUBCHEM_COMPONENT_COUNT>
1

> <PUBCHEM_CACTVS_TAUTO_COUNT>
1

> <PUBCHEM_CONFORMER_ID>
00B0EFEF00000001

> <PUBCHEM_MMFF94_ENERGY>
69.6113

> <PUBCHEM_FEATURE_SELFOVERLAP>
35.651

> <PUBCHEM_SHAPE_FINGERPRINT>
10050765 1 18120655735168657873
11135926 11 18410287052426926623
11578080 2 16590552242008024383
11963148 33 18115306812794459251
12156800 1 16484965221391363910
12160290 23 17762935390083949602
12236239 1 17167860893818081992
12553582 1 16967184890816080946
12592029 89 18408891715307737713
12788726 201 17686632641786079830
12839892 36 18408594864622433369
13004483 165 17406546387216671574
13140716 1 17975419019262025153
133893 2 17975437727316406384
13540713 4 17898861145775420049
13757389 114 18193009324528611076
138480 1 17763185739432672630
14659021 117 17763168538684400594
14844126 61 18120933077995862130
14866123 147 18196369445085314938
14955137 171 16683184842613179913
15042514 8 18120378923629099443
15463212 79 18190172576350230352
15664445 248 17766001597507479190
15927050 60 18411980291306358598
16728300 4 17750774611181610232
18681886 176 18260832648091633684
20028762 73 18054519260211845719
20197701 30 18410013234448138836
20567600 347 18334021587832649011
20642791 13 17478319198635781418
21033648 29 18271794753002993264
21133410 32 14280198371152456144
22956985 138 17969218928178596243
23366157 5 17825115813529335729
23419403 2 17461424837487530294
23559900 14 17906452121838316063
23728640 28 18191588755853190202
255183 313 18125454235101548003
3178227 256 18265348368379847625
3298306 158 18338800013985371116
3383291 50 18271815571416014062
38695281 34 18411979139774666114
5265222 85 18335996350178105108
5385378 56 18267875990745621753
59755656 215 18333734615862158793
59755656 520 18341609369131129468
6669772 16 18201726141424043894
81228 2 17693371557184552835
9981440 41 18333736805736545129

> <PUBCHEM_SHAPE_MULTIPOLES>
523.98
9.55
6.4
1.28
1.56
10.76
0.06
-11
-1.68
1.12
1.35
0.71
0.83
0.13

> <PUBCHEM_SHAPE_SELFOVERLAP>
1112.669

> <PUBCHEM_SHAPE_VOLUME>
295.1

> <PUBCHEM_COORDINATE_TYPE>
2
5
10

$$$$
