11653141
  -OEChem-07312515553D

 46 48  0     0  0  0  0  0  0999 V2000
   -2.1226    1.0120   -0.3756 O   0  0  0  0  0  0  0  0  0  0  0  0
    4.2533    0.2366    0.4770 O   0  0  0  0  0  0  0  0  0  0  0  0
   -1.1598    2.2608   -2.2140 O   0  0  0  0  0  0  0  0  0  0  0  0
    0.6164    1.1992   -1.0398 N   0  0  0  0  0  0  0  0  0  0  0  0
    0.6501    2.1133    2.5199 N   0  0  0  0  0  0  0  0  0  0  0  0
    1.9828    0.7645   -1.1752 C   0  0  0  0  0  0  0  0  0  0  0  0
    2.2238   -0.5565   -0.5224 C   0  0  0  0  0  0  0  0  0  0  0  0
    0.1233    1.4796    0.3089 C   0  0  0  0  0  0  0  0  0  0  0  0
    3.3492   -0.7627    0.2756 C   0  0  0  0  0  0  0  0  0  0  0  0
   -1.2038    1.3719    0.5636 C   0  0  0  0  0  0  0  0  0  0  0  0
   -0.2319    1.4499   -2.1577 C   0  0  0  0  0  0  0  0  0  0  0  0
    1.3086   -1.5910   -0.7180 C   0  0  0  0  0  0  0  0  0  0  0  0
    1.0250    1.8379    1.2506 C   0  0  0  0  0  0  0  0  0  0  0  0
    3.5592   -2.0032    0.8781 C   0  0  0  0  0  0  0  0  0  0  0  0
    1.5188   -2.8314   -0.1157 C   0  0  0  0  0  0  0  0  0  0  0  0
   -1.6282    1.6475    1.8588 C   0  0  0  0  0  0  0  0  0  0  0  0
    2.6440   -3.0375    0.6823 C   0  0  0  0  0  0  0  0  0  0  0  0
    0.0897    0.6570   -3.4038 C   0  0  0  0  0  0  0  0  0  0  0  0
   -0.6703    2.0108    2.7916 C   0  0  0  0  0  0  0  0  0  0  0  0
   -2.8689   -0.1297   -0.1399 C   0  0  0  0  0  0  0  0  0  0  0  0
   -2.2317   -1.2695    0.3169 C   0  0  0  0  0  0  0  0  0  0  0  0
   -4.2332   -0.1021   -0.3676 C   0  0  0  0  0  0  0  0  0  0  0  0
    5.3359    0.3268   -0.4470 C  -1  0  0  0  0  0  0  0  0  0  0  0
   -2.9838   -2.4201    0.5538 C   0  0  0  0  0  0  0  0  0  0  0  0
   -4.9852   -1.2527   -0.1306 C   0  0  0  0  0  0  0  0  0  0  0  0
   -4.3605   -2.4117    0.3301 C   0  0  0  0  0  0  0  0  0  0  0  0
    2.6447    1.5639   -0.8272 H   0  0  0  0  0  0  0  0  0  0  0  0
    2.2529    0.6597   -2.2314 H   0  0  0  0  0  0  0  0  0  0  0  0
    0.4257   -1.4692   -1.3347 H   0  0  0  0  0  0  0  0  0  0  0  0
    2.0858    1.9721    1.0961 H   0  0  0  0  0  0  0  0  0  0  0  0
    4.4331   -2.1708    1.5018 H   0  0  0  0  0  0  0  0  0  0  0  0
    0.8062   -3.6368   -0.2679 H   0  0  0  0  0  0  0  0  0  0  0  0
   -2.6735    1.5948    2.1441 H   0  0  0  0  0  0  0  0  0  0  0  0
    2.8073   -4.0033    1.1515 H   0  0  0  0  0  0  0  0  0  0  0  0
    0.4233   -0.3562   -3.1853 H   0  0  0  0  0  0  0  0  0  0  0  0
    0.8546    1.1835   -3.9812 H   0  0  0  0  0  0  0  0  0  0  0  0
   -0.8143    0.5770   -4.0161 H   0  0  0  0  0  0  0  0  0  0  0  0
   -0.9498    2.2384    3.8150 H   0  0  0  0  0  0  0  0  0  0  0  0
   -1.1671   -1.3009    0.5100 H   0  0  0  0  0  0  0  0  0  0  0  0
   -4.7207    0.7995   -0.7261 H   0  0  0  0  0  0  0  0  0  0  0  0
    4.9678    0.4468   -1.4707 H   0  0  0  0  0  0  0  0  0  0  0  0
    5.9692   -0.5633   -0.3788 H   0  0  0  0  0  0  0  0  0  0  0  0
    5.9357    1.2032   -0.1866 H   0  0  0  0  0  0  0  0  0  0  0  0
   -2.4977   -3.3218    0.9147 H   0  0  0  0  0  0  0  0  0  0  0  0
   -6.0573   -1.2462   -0.3046 H   0  0  0  0  0  0  0  0  0  0  0  0
   -4.9462   -3.3074    0.5152 H   0  0  0  0  0  0  0  0  0  0  0  0
  1 10  1  0  0  0  0
  1 20  1  0  0  0  0
  2  9  1  0  0  0  0
  2 23  1  0  0  0  0
  3 11  2  0  0  0  0
  4  6  1  0  0  0  0
  4  8  1  0  0  0  0
  4 11  1  0  0  0  0
  5 13  2  0  0  0  0
  5 19  1  0  0  0  0
  6  7  1  0  0  0  0
  6 27  1  0  0  0  0
  6 28  1  0  0  0  0
  7  9  1  0  0  0  0
  7 12  2  0  0  0  0
  8 10  2  0  0  0  0
  8 13  1  0  0  0  0
  9 14  2  0  0  0  0
 10 16  1  0  0  0  0
 11 18  1  0  0  0  0
 12 15  1  0  0  0  0
 12 29  1  0  0  0  0
 13 30  1  0  0  0  0
 14 17  1  0  0  0  0
 14 31  1  0  0  0  0
 15 17  2  0  0  0  0
 15 32  1  0  0  0  0
 16 19  2  0  0  0  0
 16 33  1  0  0  0  0
 17 34  1  0  0  0  0
 18 35  1  0  0  0  0
 18 36  1  0  0  0  0
 18 37  1  0  0  0  0
 19 38  1  0  0  0  0
 20 21  2  0  0  0  0
 20 22  1  0  0  0  0
 21 24  1  0  0  0  0
 21 39  1  0  0  0  0
 22 25  2  0  0  0  0
 22 40  1  0  0  0  0
 23 41  1  0  0  0  0
 23 42  1  0  0  0  0
 23 43  1  0  0  0  0
 24 26  2  0  0  0  0
 24 44  1  0  0  0  0
 25 26  1  0  0  0  0
 25 45  1  0  0  0  0
 26 46  1  0  0  0  0
M  ISO  1  23  11
M  END
> <PUBCHEM_COMPOUND_CID>
11653141

> <PUBCHEM_CONFORMER_RMSD>
0.8

> <PUBCHEM_CONFORMER_DIVERSEORDER>
7
35
146
211
227
196
234
171
10
44
241
251
233
228
126
247
265
85
117
66
27
60
97
113
159
217
52
250
33
39
119
145
226
260
90
141
115
190
42
203
110
161
257
98
197
127
142
121
173
180
132
230
34
178
109
89
167
124
198
239
136
220
74
25
245
259
160
128
249
137
96
229
263
112
55
95
256
218
253
207
106
165
267
175
151
254
235
153
148
131
144
77
140
261
158
16
108
155
166
192
51
163
237
36
139
244
208
194
56
21
120
71
238
243
195
73
129
19
174
57
185
156
186
12
134
125
58
54
164
67
64
188
152
232
14
49
255
214
184
88
116
221
61
91
189
242
23
107
216
157
72
162
138
122
236
47
222
38
202
69
79
149
87
133
80
83
266
86
84
248
92
193
65
176
8
204
41
147
172
18
206
31
201
1
46
240
191
99
75
264
169
68
101
40
6
200
258
76
81
43
100
48
15
24
20
150
225
102
63
11
154
45
168
223
30
4
104
37
118
53
246
224
78
213
219
143
93
22
62
215
199
103
177
252
123
50
26
2
59
114
210
135
179
268
32
262
9
70
187
182
170
28
105
3
5
13
269
29
94
82
209
17
212
205
130
181
231
183
111

> <PUBCHEM_MMFF94_PARTIAL_CHARGES>
38
1 -0.17
10 0.08
11 0.57
12 -0.15
13 0.16
14 -0.15
15 -0.15
16 -0.15
17 -0.15
18 0.06
19 0.16
2 -0.36
20 0.08
21 -0.15
22 -0.15
23 0.28
24 -0.15
25 -0.15
26 -0.15
29 0.15
3 -0.57
30 0.15
31 0.15
32 0.15
33 0.15
34 0.15
38 0.15
39 0.15
4 -0.48
40 0.15
44 0.15
45 0.15
46 0.15
5 -0.62
6 0.44
7 -0.14
8 0.12
9 0.08

> <PUBCHEM_EFFECTIVE_ROTOR_COUNT>
7

> <PUBCHEM_PHARMACOPHORE_FEATURES>
7
1 1 acceptor
1 2 acceptor
1 3 acceptor
1 5 acceptor
6 20 21 22 24 25 26 rings
6 5 8 10 13 16 19 rings
6 7 9 12 14 15 17 rings

> <PUBCHEM_HEAVY_ATOM_COUNT>
26

> <PUBCHEM_ATOM_DEF_STEREO_COUNT>
0

> <PUBCHEM_ATOM_UDEF_STEREO_COUNT>
0

> <PUBCHEM_BOND_DEF_STEREO_COUNT>
0

> <PUBCHEM_BOND_UDEF_STEREO_COUNT>
0

> <PUBCHEM_ISOTOPIC_ATOM_COUNT>
1

> <PUBCHEM_COMPONENT_COUNT>
1

> <PUBCHEM_CACTVS_TAUTO_COUNT>
1

> <PUBCHEM_CONFORMER_ID>
00B1D01500000007

> <PUBCHEM_MMFF94_ENERGY>
120.7696

> <PUBCHEM_FEATURE_SELFOVERLAP>
35.552

> <PUBCHEM_SHAPE_FINGERPRINT>
10906281 52 16588607334993495756
11578080 2 18336250259010730949
12156800 1 15725811631108467211
12506688 2 18341894103972336195
12539773 59 15103473554325238063
12633257 1 17838060295298956034
12788726 201 17630893703170000465
12824470 246 18410857620618076817
13544653 18 18411420604910416611
14787075 74 18129660949599277764
17492 54 17532388636889263894
17974551 9 16192822490683868786
20626108 58 18114735053240101259
20775530 9 18264204712466857795
21033648 29 14764344882258369427
21421861 104 18129683983535176297
23419403 2 18124280927060614553
23559900 14 18337663235016493105
238 59 16663204946598440967
3380486 145 17969234334674445396
35225 105 16409613305579733435
3797600 57 18060138722122040842
392239 28 18131064987361879650
463206 1 18051976115307346935
469060 322 17967537882953578686
9981440 41 16233953532915136253

> <PUBCHEM_SHAPE_MULTIPOLES>
507.5
7.88
3.27
2.35
0.58
1.42
-0.88
5.3
0.49
0.12
1.23
0.03
-2.23
-0.29

> <PUBCHEM_SHAPE_SELFOVERLAP>
1103.218

> <PUBCHEM_SHAPE_VOLUME>
274.2

> <PUBCHEM_COORDINATE_TYPE>
2
5
10

$$$$
