11696868
  -OEChem-08022503453D

 51 53  0     0  0  0  0  0  0999 V2000
    0.3156    4.6608   -0.7316 F  -1  0  0  0  0  0  0  0  0  0  0  0
   -2.6062    0.8886   -0.4684 O   0  0  0  0  0  0  0  0  0  0  0  0
    0.9275   -1.9095    1.2881 O   0  0  0  0  0  0  0  0  0  0  0  0
    5.5029   -0.2180   -1.2813 O   0  0  0  0  0  0  0  0  0  0  0  0
    1.1610    2.5392   -1.9419 O   0  0  0  0  0  0  0  0  0  0  0  0
    0.1965    1.0242   -0.3822 N   0  0  0  0  0  0  0  0  0  0  0  0
    0.6326   -0.2078   -0.9877 C   0  0  0  0  0  0  0  0  0  0  0  0
    1.9614   -0.6527   -0.4720 C   0  0  0  0  0  0  0  0  0  0  0  0
   -0.5994    0.9565    0.8436 C   0  0  0  0  0  0  0  0  0  0  0  0
    2.0505   -1.4849    0.6438 C   0  0  0  0  0  0  0  0  0  0  0  0
   -1.9553    0.8918    0.7294 C   0  0  0  0  0  0  0  0  0  0  0  0
    3.1214   -0.2265   -1.1188 C   0  0  0  0  0  0  0  0  0  0  0  0
    0.5055    2.3065   -0.9232 C   0  0  0  0  0  0  0  0  0  0  0  0
    0.0833    0.9625    2.0241 C   0  0  0  0  0  0  0  0  0  0  0  0
    4.3708   -0.6323   -0.6493 C   0  0  0  0  0  0  0  0  0  0  0  0
    3.2998   -1.8907    1.1131 C   0  0  0  0  0  0  0  0  0  0  0  0
   -2.7006    0.8271    1.9067 C   0  0  0  0  0  0  0  0  0  0  0  0
    4.4600   -1.4644    0.4665 C   0  0  0  0  0  0  0  0  0  0  0  0
   -0.6621    0.8978    3.2013 C   0  0  0  0  0  0  0  0  0  0  0  0
    0.0008    3.4841   -0.1204 C   0  0  0  0  0  0  0  0  0  0  0  0
   -2.0541    0.8300    3.1426 C   0  0  0  0  0  0  0  0  0  0  0  0
   -3.3975   -0.2070   -0.7655 C   0  0  0  0  0  0  0  0  0  0  0  0
    0.3452   -3.1310    0.8380 C   0  0  0  0  0  0  0  0  0  0  0  0
   -2.9085   -1.4784   -0.5225 C   0  0  0  0  0  0  0  0  0  0  0  0
   -4.6579   -0.0042   -1.2991 C   0  0  0  0  0  0  0  0  0  0  0  0
    6.7465   -0.6722   -0.7496 C   0  0  0  0  0  0  0  0  0  0  0  0
   -3.7058   -2.5828   -0.8229 C   0  0  0  0  0  0  0  0  0  0  0  0
   -5.4552   -1.1086   -1.5994 C   0  0  0  0  0  0  0  0  0  0  0  0
   -4.9791   -2.3979   -1.3614 C   0  0  0  0  0  0  0  0  0  0  0  0
    0.7080   -0.0435   -2.0709 H   0  0  0  0  0  0  0  0  0  0  0  0
   -0.1258   -0.9801   -0.8789 H   0  0  0  0  0  0  0  0  0  0  0  0
    3.0635    0.4202   -1.9907 H   0  0  0  0  0  0  0  0  0  0  0  0
    1.1646    1.0308    2.0756 H   0  0  0  0  0  0  0  0  0  0  0  0
    3.3758   -2.5380    1.9828 H   0  0  0  0  0  0  0  0  0  0  0  0
   -3.7863    0.7853    1.8804 H   0  0  0  0  0  0  0  0  0  0  0  0
    5.3970   -1.8170    0.8839 H   0  0  0  0  0  0  0  0  0  0  0  0
   -0.1587    0.9040    4.1637 H   0  0  0  0  0  0  0  0  0  0  0  0
   -2.6345    0.7829    4.0594 H   0  0  0  0  0  0  0  0  0  0  0  0
    0.4673    3.5060    0.8668 H   0  0  0  0  0  0  0  0  0  0  0  0
   -1.0871    3.4609   -0.0325 H   0  0  0  0  0  0  0  0  0  0  0  0
   -0.6318   -3.2421    1.3158 H   0  0  0  0  0  0  0  0  0  0  0  0
    0.2132   -3.1435   -0.2480 H   0  0  0  0  0  0  0  0  0  0  0  0
    0.9749   -3.9741    1.1396 H   0  0  0  0  0  0  0  0  0  0  0  0
   -1.9365   -1.6567   -0.0854 H   0  0  0  0  0  0  0  0  0  0  0  0
   -5.0300    0.9989   -1.4847 H   0  0  0  0  0  0  0  0  0  0  0  0
    6.9084   -0.3016    0.2683 H   0  0  0  0  0  0  0  0  0  0  0  0
    7.5393   -0.2475   -1.3741 H   0  0  0  0  0  0  0  0  0  0  0  0
    6.8379   -1.7618   -0.8142 H   0  0  0  0  0  0  0  0  0  0  0  0
   -3.3371   -3.5866   -0.6324 H   0  0  0  0  0  0  0  0  0  0  0  0
   -6.4469   -0.9647   -2.0182 H   0  0  0  0  0  0  0  0  0  0  0  0
   -5.6004   -3.2578   -1.5939 H   0  0  0  0  0  0  0  0  0  0  0  0
  1 20  1  0  0  0  0
  2 11  1  0  0  0  0
  2 22  1  0  0  0  0
  3 10  1  0  0  0  0
  3 23  1  0  0  0  0
  4 15  1  0  0  0  0
  4 26  1  0  0  0  0
  5 13  2  0  0  0  0
  6  7  1  0  0  0  0
  6  9  1  0  0  0  0
  6 13  1  0  0  0  0
  7  8  1  0  0  0  0
  7 30  1  0  0  0  0
  7 31  1  0  0  0  0
  8 10  2  0  0  0  0
  8 12  1  0  0  0  0
  9 11  1  0  0  0  0
  9 14  2  0  0  0  0
 10 16  1  0  0  0  0
 11 17  2  0  0  0  0
 12 15  2  0  0  0  0
 12 32  1  0  0  0  0
 13 20  1  0  0  0  0
 14 19  1  0  0  0  0
 14 33  1  0  0  0  0
 15 18  1  0  0  0  0
 16 18  2  0  0  0  0
 16 34  1  0  0  0  0
 17 21  1  0  0  0  0
 17 35  1  0  0  0  0
 18 36  1  0  0  0  0
 19 21  2  0  0  0  0
 19 37  1  0  0  0  0
 20 39  1  0  0  0  0
 20 40  1  0  0  0  0
 21 38  1  0  0  0  0
 22 24  2  0  0  0  0
 22 25  1  0  0  0  0
 23 41  1  0  0  0  0
 23 42  1  0  0  0  0
 23 43  1  0  0  0  0
 24 27  1  0  0  0  0
 24 44  1  0  0  0  0
 25 28  2  0  0  0  0
 25 45  1  0  0  0  0
 26 46  1  0  0  0  0
 26 47  1  0  0  0  0
 26 48  1  0  0  0  0
 27 29  2  0  0  0  0
 27 49  1  0  0  0  0
 28 29  1  0  0  0  0
 28 50  1  0  0  0  0
 29 51  1  0  0  0  0
M  ISO  1   1  18
M  END
> <PUBCHEM_COMPOUND_CID>
11696868

> <PUBCHEM_CONFORMER_RMSD>
1

> <PUBCHEM_CONFORMER_DIVERSEORDER>
1
67
52
112
127
152
124
148
151
76
48
145
90
77
21
137
8
113
101
138
61
131
93
3
100
128
34
122
81
35
80
92
18
96
139
129
59
126
99
27
105
72
143
68
82
2
75
37
149
11
121
28
56
58
110
135
16
95
62
12
88
79
119
106
116
45
6
89
103
74
120
134
42
140
85
107
39
97
141
133
66
147
40
60
51
33
7
31
20
38
43
136
5
64
102
150
84
44
104
109
114
46
49
86
15
36
123
118
10
73
108
23
117
142
9
57
87
19
132
53
83
146
14
125
111
25
71
78
30
54
24
115
17
13
4
47
91
69
41
55
98
94
32
130
65
26
63
153
50
144
29
70
22

> <PUBCHEM_MMFF94_PARTIAL_CHARGES>
41
1 -0.34
10 0.08
11 0.08
12 -0.15
13 0.57
14 -0.15
15 0.08
16 -0.15
17 -0.15
18 -0.15
19 -0.15
2 -0.17
20 0.4
21 -0.15
22 0.08
23 0.28
24 -0.15
25 -0.15
26 0.28
27 -0.15
28 -0.15
29 -0.15
3 -0.36
32 0.15
33 0.15
34 0.15
35 0.15
36 0.15
37 0.15
38 0.15
4 -0.36
44 0.15
45 0.15
49 0.15
5 -0.57
50 0.15
51 0.15
6 -0.48
7 0.44
8 -0.14
9 0.12

> <PUBCHEM_EFFECTIVE_ROTOR_COUNT>
9

> <PUBCHEM_PHARMACOPHORE_FEATURES>
7
1 2 acceptor
1 3 acceptor
1 4 acceptor
1 5 acceptor
6 22 24 25 27 28 29 rings
6 8 10 12 15 16 18 rings
6 9 11 14 17 19 21 rings

> <PUBCHEM_HEAVY_ATOM_COUNT>
29

> <PUBCHEM_ATOM_DEF_STEREO_COUNT>
0

> <PUBCHEM_ATOM_UDEF_STEREO_COUNT>
0

> <PUBCHEM_BOND_DEF_STEREO_COUNT>
0

> <PUBCHEM_BOND_UDEF_STEREO_COUNT>
0

> <PUBCHEM_ISOTOPIC_ATOM_COUNT>
1

> <PUBCHEM_COMPONENT_COUNT>
1

> <PUBCHEM_CACTVS_TAUTO_COUNT>
1

> <PUBCHEM_CONFORMER_ID>
00B27AE400000001

> <PUBCHEM_MMFF94_ENERGY>
133.9789

> <PUBCHEM_FEATURE_SELFOVERLAP>
35.524

> <PUBCHEM_SHAPE_FINGERPRINT>
105312 117 13695585542512977979
11578080 2 18128233650036248833
12166972 35 18200589315146721711
12788726 201 18116424843518640448
13004483 165 18046329852193231731
13009979 54 17988092178840059537
133893 2 18194140717645994057
13583140 156 15864363483995584778
13782708 43 17060067999915443630
13911987 19 17968114026941200886
14068700 675 18131063870401421607
14787075 74 17844512512818920818
15439362 3 18046059625784063797
17492 54 18113615698757948414
20600515 1 18130790040566582109
20626108 58 18342444976641076071
20775438 99 16761377170353161431
21452121 71 18272370888352265513
23419403 2 17772154679108243361
23559900 14 18267003129226847935
238 59 17823141292572545071
244849 19 17459759313969242361
469060 322 18411136896935600080
57527295 17 17749380447701965041
57527585 103 18046099096428258843

> <PUBCHEM_SHAPE_MULTIPOLES>
561.07
10.43
3.54
2.39
6.32
2.32
1.84
-8.44
-5.73
-1.22
-0.72
-0.99
1.19
-2.19

> <PUBCHEM_SHAPE_SELFOVERLAP>
1211.311

> <PUBCHEM_SHAPE_VOLUME>
309.2

> <PUBCHEM_COORDINATE_TYPE>
2
5
10

$$$$
