AC-5216_fine14_out
     RDKit          3D

 53 56  0  0  0  0  0  0  0  0999 V2000
    1.0580   18.7880    4.0490 C   0  0  0  0  0  0  0  0  0  0  0  0
    1.5820   17.7720    5.0430 C   0  0  0  0  0  0  0  0  0  0  0  0
    0.5040   17.2030    5.8430 N   0  0  0  0  0  0  0  0  0  0  0  0
   -0.1810   16.0600    5.2420 C   0  0  0  0  0  0  0  0  0  0  0  0
    0.3690   14.7540    5.7350 C   0  0  0  0  0  0  0  0  0  0  0  0
    1.3700   14.1130    5.0130 C   0  0  0  0  0  0  0  0  0  0  0  0
    1.8820   12.8990    5.4700 C   0  0  0  0  0  0  0  0  0  0  0  0
    1.3890   12.3320    6.6460 C   0  0  0  0  0  0  0  0  0  0  0  0
    0.3850   12.9810    7.3650 C   0  0  0  0  0  0  0  0  0  0  0  0
   -0.1270   14.1960    6.9080 C   0  0  0  0  0  0  0  0  0  0  0  0
    0.1510   17.7120    7.0980 C   0  0  0  0  0  0  0  0  0  0  0  0
   -1.0160   17.8920    7.4540 O   0  0  0  0  0  0  0  0  0  0  0  0
    1.3070   18.0410    8.0270 C   0  0  0  0  0  0  0  0  0  0  0  0
    1.6010   16.9100    8.8670 N   0  0  0  0  0  0  0  0  0  0  0  0
    0.9900   16.5800   10.1110 C   0  0  0  0  0  0  0  0  0  0  0  0
    0.1050   17.1960   10.6890 O   0  0  0  0  0  0  0  0  0  0  0  0
    1.6290   15.3810   10.5360 N   0  0  0  0  0  0  0  0  0  0  0  0
    1.3410   14.6620   11.7510 C   0  0  0  0  0  0  0  0  0  0  0  0
    2.5810   15.0180    9.5810 C   0  0  0  0  0  0  0  0  0  0  0  0
    3.4550   13.9700    9.5010 C   0  0  0  0  0  0  0  0  0  0  0  0
    4.2900   13.8460    8.4460 N   0  0  0  0  0  0  0  0  0  0  0  0
    4.1980   14.8150    7.4960 C   0  0  0  0  0  0  0  0  0  0  0  0
    5.0880   14.6830    6.3720 C   0  0  0  0  0  0  0  0  0  0  0  0
    5.5950   15.8220    5.7390 C   0  0  0  0  0  0  0  0  0  0  0  0
    6.4600   15.6950    4.6520 C   0  0  0  0  0  0  0  0  0  0  0  0
    6.8220   14.4280    4.1930 C   0  0  0  0  0  0  0  0  0  0  0  0
    6.3180   13.2900    4.8210 C   0  0  0  0  0  0  0  0  0  0  0  0
    5.4540   13.4160    5.9090 C   0  0  0  0  0  0  0  0  0  0  0  0
    3.3710   15.8860    7.4810 N   0  0  0  0  0  0  0  0  0  0  0  0
    2.5740   15.9440    8.5550 C   0  0  0  0  0  0  0  0  0  0  0  0
    0.6192   19.6387    4.5910 H   0  0  0  0  0  0  0  0  0  0  0  0
    1.8854   19.1432    3.4171 H   0  0  0  0  0  0  0  0  0  0  0  0
    0.2889   18.3198    3.4171 H   0  0  0  0  0  0  0  0  0  0  0  0
    2.0861   16.9625    4.4948 H   0  0  0  0  0  0  0  0  0  0  0  0
    2.2831   18.2814    5.7205 H   0  0  0  0  0  0  0  0  0  0  0  0
   -1.2502   16.1134    5.4947 H   0  0  0  0  0  0  0  0  0  0  0  0
   -0.0274   16.1049    4.1537 H   0  0  0  0  0  0  0  0  0  0  0  0
    1.7561   14.5615    4.0858 H   0  0  0  0  0  0  0  0  0  0  0  0
    2.6746   12.3883    4.9034 H   0  0  0  0  0  0  0  0  0  0  0  0
    1.7919   11.3738    7.0059 H   0  0  0  0  0  0  0  0  0  0  0  0
   -0.0032   12.5348    8.2925 H   0  0  0  0  0  0  0  0  0  0  0  0
   -0.9189   14.7097    7.4728 H   0  0  0  0  0  0  0  0  0  0  0  0
    2.1955   18.2909    7.4285 H   0  0  0  0  0  0  0  0  0  0  0  0
    1.0297   18.8976    8.6590 H   0  0  0  0  0  0  0  0  0  0  0  0
    1.5929   15.2908   12.6177 H   0  0  0  0  0  0  0  0  0  0  0  0
    0.2714   14.4071   11.7814 H   0  0  0  0  0  0  0  0  0  0  0  0
    1.9389   13.7392   11.7814 H   0  0  0  0  0  0  0  0  0  0  0  0
    3.4788   13.2192   10.3046 H   0  0  0  0  0  0  0  0  0  0  0  0
    5.3108   16.8217    6.0994 H   0  0  0  0  0  0  0  0  0  0  0  0
    6.8567   16.5935    4.1568 H   0  0  0  0  0  0  0  0  0  0  0  0
    7.5045   14.3272    3.3363 H   0  0  0  0  0  0  0  0  0  0  0  0
    6.6020   12.2912    4.4581 H   0  0  0  0  0  0  0  0  0  0  0  0
    5.0598   12.5161    6.4037 H   0  0  0  0  0  0  0  0  0  0  0  0
  1  2  1  0
  2  3  1  0
  3  4  1  0
  4  5  1  0
  5  6  2  0
  6  7  1  0
  7  8  2  0
  8  9  1  0
  9 10  2  0
  3 11  1  0
 11 12  2  0
 11 13  1  0
 13 14  1  0
 14 15  1  0
 15 16  2  0
 15 17  1  0
 17 18  1  0
 17 19  1  0
 19 20  2  0
 20 21  1  0
 21 22  2  0
 22 23  1  0
 23 24  2  0
 24 25  1  0
 25 26  2  0
 26 27  1  0
 27 28  2  0
 22 29  1  0
 29 30  2  0
 10  5  1  0
 30 14  1  0
 30 19  1  0
 28 23  1  0
  1 31  1  0
  1 32  1  0
  1 33  1  0
  2 34  1  0
  2 35  1  0
  4 36  1  0
  4 37  1  0
  6 38  1  0
  7 39  1  0
  8 40  1  0
  9 41  1  0
 10 42  1  0
 13 43  1  0
 13 44  1  0
 18 45  1  0
 18 46  1  0
 18 47  1  0
 20 48  1  0
 24 49  1  0
 25 50  1  0
 26 51  1  0
 27 52  1  0
 28 53  1  0
M  END
>  <meeko>  (1) 
{"is_sidechain": [false], "free_energy": -5.295, "intermolecular_energy": -7.462, "internal_energy": -2.645}

$$$$
AC-5216_fine14_out
     RDKit          3D

 53 56  0  0  0  0  0  0  0  0999 V2000
    3.1460   16.7850    8.9090 C   0  0  0  0  0  0  0  0  0  0  0  0
    4.3760   16.7500    8.0250 C   0  0  0  0  0  0  0  0  0  0  0  0
    4.6960   15.3900    7.6080 N   0  0  0  0  0  0  0  0  0  0  0  0
    4.6070   15.1410    6.1720 C   0  0  0  0  0  0  0  0  0  0  0  0
    3.2690   14.5850    5.7810 C   0  0  0  0  0  0  0  0  0  0  0  0
    3.1210   13.2150    5.5980 C   0  0  0  0  0  0  0  0  0  0  0  0
    1.8780   12.6970    5.2350 C   0  0  0  0  0  0  0  0  0  0  0  0
    0.7910   13.5530    5.0560 C   0  0  0  0  0  0  0  0  0  0  0  0
    0.9470   14.9260    5.2420 C   0  0  0  0  0  0  0  0  0  0  0  0
    2.1910   15.4440    5.6050 C   0  0  0  0  0  0  0  0  0  0  0  0
    5.0650   14.3940    8.5200 C   0  0  0  0  0  0  0  0  0  0  0  0
    4.2830   13.5440    8.9510 O   0  0  0  0  0  0  0  0  0  0  0  0
    6.5180   14.4090    8.9640 C   0  0  0  0  0  0  0  0  0  0  0  0
    7.0430   13.0690    8.9780 N   0  0  0  0  0  0  0  0  0  0  0  0
    7.1200   12.1860   10.0930 C   0  0  0  0  0  0  0  0  0  0  0  0
    6.7530   12.4050   11.2390 O   0  0  0  0  0  0  0  0  0  0  0  0
    7.7140   10.9950    9.5880 N   0  0  0  0  0  0  0  0  0  0  0  0
    7.9960    9.8070   10.3530 C   0  0  0  0  0  0  0  0  0  0  0  0
    7.9780   11.1680    8.2270 C   0  0  0  0  0  0  0  0  0  0  0  0
    8.5330   10.3500    7.2830 C   0  0  0  0  0  0  0  0  0  0  0  0
    8.6810   10.7680    6.0070 N   0  0  0  0  0  0  0  0  0  0  0  0
    8.2470   12.0300    5.7400 C   0  0  0  0  0  0  0  0  0  0  0  0
    8.4050   12.4760    4.3800 C   0  0  0  0  0  0  0  0  0  0  0  0
    9.6480   12.3780    3.7470 C   0  0  0  0  0  0  0  0  0  0  0  0
    9.8010   12.8080    2.4290 C   0  0  0  0  0  0  0  0  0  0  0  0
    8.7110   13.3380    1.7370 C   0  0  0  0  0  0  0  0  0  0  0  0
    7.4700   13.4370    2.3650 C   0  0  0  0  0  0  0  0  0  0  0  0
    7.3160   13.0070    3.6830 C   0  0  0  0  0  0  0  0  0  0  0  0
    7.6880   12.9130    6.5980 N   0  0  0  0  0  0  0  0  0  0  0  0
    7.5730   12.4320    7.8410 C   0  0  0  0  0  0  0  0  0  0  0  0
    3.4532   16.7763    9.9652 H   0  0  0  0  0  0  0  0  0  0  0  0
    2.5715   17.6999    8.7018 H   0  0  0  0  0  0  0  0  0  0  0  0
    2.5204   15.9043    8.7018 H   0  0  0  0  0  0  0  0  0  0  0  0
    4.1912   17.3638    7.1311 H   0  0  0  0  0  0  0  0  0  0  0  0
    5.2264   17.1433    8.6013 H   0  0  0  0  0  0  0  0  0  0  0  0
    4.7686   16.0881    5.6364 H   0  0  0  0  0  0  0  0  0  0  0  0
    5.3745   14.3989    5.9070 H   0  0  0  0  0  0  0  0  0  0  0  0
    3.9801   12.5427    5.7388 H   0  0  0  0  0  0  0  0  0  0  0  0
    1.7547   11.6136    5.0898 H   0  0  0  0  0  0  0  0  0  0  0  0
   -0.1890   13.1448    4.7682 H   0  0  0  0  0  0  0  0  0  0  0  0
    0.0896   15.6009    5.1026 H   0  0  0  0  0  0  0  0  0  0  0  0
    2.3175   16.5269    5.7511 H   0  0  0  0  0  0  0  0  0  0  0  0
    7.1058   15.0231    8.2659 H   0  0  0  0  0  0  0  0  0  0  0  0
    6.5812   14.8318    9.9775 H   0  0  0  0  0  0  0  0  0  0  0  0
    7.9406   10.0404   11.4265 H   0  0  0  0  0  0  0  0  0  0  0  0
    7.2575    9.0294   10.1083 H   0  0  0  0  0  0  0  0  0  0  0  0
    9.0052    9.4442   10.1083 H   0  0  0  0  0  0  0  0  0  0  0  0
    8.8630    9.3395    7.5657 H   0  0  0  0  0  0  0  0  0  0  0  0
   10.5083   11.9603    4.2905 H   0  0  0  0  0  0  0  0  0  0  0  0
   10.7807   12.7294    1.9350 H   0  0  0  0  0  0  0  0  0  0  0  0
    8.8308   13.6772    0.6975 H   0  0  0  0  0  0  0  0  0  0  0  0
    6.6108   13.8550    1.8200 H   0  0  0  0  0  0  0  0  0  0  0  0
    6.3353   13.0860    4.1749 H   0  0  0  0  0  0  0  0  0  0  0  0
  1  2  1  0
  2  3  1  0
  3  4  1  0
  4  5  1  0
  5  6  2  0
  6  7  1  0
  7  8  2  0
  8  9  1  0
  9 10  2  0
  3 11  1  0
 11 12  2  0
 11 13  1  0
 13 14  1  0
 14 15  1  0
 15 16  2  0
 15 17  1  0
 17 18  1  0
 17 19  1  0
 19 20  2  0
 20 21  1  0
 21 22  2  0
 22 23  1  0
 23 24  2  0
 24 25  1  0
 25 26  2  0
 26 27  1  0
 27 28  2  0
 22 29  1  0
 29 30  2  0
 10  5  1  0
 30 14  1  0
 30 19  1  0
 28 23  1  0
  1 31  1  0
  1 32  1  0
  1 33  1  0
  2 34  1  0
  2 35  1  0
  4 36  1  0
  4 37  1  0
  6 38  1  0
  7 39  1  0
  8 40  1  0
  9 41  1  0
 10 42  1  0
 13 43  1  0
 13 44  1  0
 18 45  1  0
 18 46  1  0
 18 47  1  0
 20 48  1  0
 24 49  1  0
 25 50  1  0
 26 51  1  0
 27 52  1  0
 28 53  1  0
M  END
>  <meeko>  (2) 
{"is_sidechain": [false], "free_energy": -5.081, "intermolecular_energy": -8.364, "internal_energy": -1.441}

$$$$
AC-5216_fine14_out
     RDKit          3D

 53 56  0  0  0  0  0  0  0  0999 V2000
    5.5550   17.3010    5.6810 C   0  0  0  0  0  0  0  0  0  0  0  0
    5.6010   15.8700    5.1860 C   0  0  0  0  0  0  0  0  0  0  0  0
    5.5220   14.9200    6.2890 N   0  0  0  0  0  0  0  0  0  0  0  0
    4.3000   14.9920    7.0870 C   0  0  0  0  0  0  0  0  0  0  0  0
    3.0960   14.5450    6.3100 C   0  0  0  0  0  0  0  0  0  0  0  0
    2.1230   15.4720    5.9570 C   0  0  0  0  0  0  0  0  0  0  0  0
    1.0040   15.0580    5.2350 C   0  0  0  0  0  0  0  0  0  0  0  0
    0.8640   13.7170    4.8730 C   0  0  0  0  0  0  0  0  0  0  0  0
    1.8450   12.7930    5.2310 C   0  0  0  0  0  0  0  0  0  0  0  0
    2.9650   13.2080    5.9530 C   0  0  0  0  0  0  0  0  0  0  0  0
    6.5430   14.0030    6.5640 C   0  0  0  0  0  0  0  0  0  0  0  0
    7.3670   14.1550    7.4690 O   0  0  0  0  0  0  0  0  0  0  0  0
    6.5880   12.7760    5.6710 C   0  0  0  0  0  0  0  0  0  0  0  0
    7.9540   12.4170    5.3940 N   0  0  0  0  0  0  0  0  0  0  0  0
    8.8160   12.9990    4.4200 C   0  0  0  0  0  0  0  0  0  0  0  0
    8.5530   13.9070    3.6450 O   0  0  0  0  0  0  0  0  0  0  0  0
   10.0490   12.2960    4.5430 N   0  0  0  0  0  0  0  0  0  0  0  0
   11.2330   12.5360    3.7590 C   0  0  0  0  0  0  0  0  0  0  0  0
    9.9190   11.3370    5.5510 C   0  0  0  0  0  0  0  0  0  0  0  0
   10.7860   10.4130    6.0620 C   0  0  0  0  0  0  0  0  0  0  0  0
   10.4040    9.5830    7.0570 N   0  0  0  0  0  0  0  0  0  0  0  0
    9.1270    9.7330    7.5000 C   0  0  0  0  0  0  0  0  0  0  0  0
    8.7190    8.8480    8.5610 C   0  0  0  0  0  0  0  0  0  0  0  0
    7.4110    8.8960    9.0520 C   0  0  0  0  0  0  0  0  0  0  0  0
    7.0140    8.0370   10.0780 C   0  0  0  0  0  0  0  0  0  0  0  0
    7.9240    7.1270   10.6160 C   0  0  0  0  0  0  0  0  0  0  0  0
    9.2300    7.0760   10.1290 C   0  0  0  0  0  0  0  0  0  0  0  0
    9.6270    7.9340    9.1030 C   0  0  0  0  0  0  0  0  0  0  0  0
    8.1960   10.6120    7.0640 N   0  0  0  0  0  0  0  0  0  0  0  0
    8.6430   11.4000    6.0790 C   0  0  0  0  0  0  0  0  0  0  0  0
    5.5548   17.3087    6.7810 H   0  0  0  0  0  0  0  0  0  0  0  0
    6.4361   17.8456    5.3107 H   0  0  0  0  0  0  0  0  0  0  0  0
    4.6407   17.7879    5.3107 H   0  0  0  0  0  0  0  0  0  0  0  0
    4.7532   15.6996    4.5062 H   0  0  0  0  0  0  0  0  0  0  0  0
    6.5577   15.7156    4.6655 H   0  0  0  0  0  0  0  0  0  0  0  0
    4.4134   14.3457    7.9699 H   0  0  0  0  0  0  0  0  0  0  0  0
    4.1460   16.0410    7.3801 H   0  0  0  0  0  0  0  0  0  0  0  0
    2.2348   16.5275    6.2457 H   0  0  0  0  0  0  0  0  0  0  0  0
    0.2318   15.7880    4.9508 H   0  0  0  0  0  0  0  0  0  0  0  0
   -0.0197   13.3895    4.3057 H   0  0  0  0  0  0  0  0  0  0  0  0
    1.7361   11.7366    4.9443 H   0  0  0  0  0  0  0  0  0  0  0  0
    3.7398   12.4810    6.2380 H   0  0  0  0  0  0  0  0  0  0  0  0
    6.0871   11.9382    6.1781 H   0  0  0  0  0  0  0  0  0  0  0  0
    6.0751   13.0003    4.7241 H   0  0  0  0  0  0  0  0  0  0  0  0
   12.0878   12.7093    4.4294 H   0  0  0  0  0  0  0  0  0  0  0  0
   11.4362   11.6608    3.1244 H   0  0  0  0  0  0  0  0  0  0  0  0
   11.0794   13.4213    3.1244 H   0  0  0  0  0  0  0  0  0  0  0  0
   11.8070   10.3441    5.6585 H   0  0  0  0  0  0  0  0  0  0  0  0
    6.6924    9.6130    8.6284 H   0  0  0  0  0  0  0  0  0  0  0  0
    5.9840    8.0776   10.4621 H   0  0  0  0  0  0  0  0  0  0  0  0
    7.6116    6.4496   11.4244 H   0  0  0  0  0  0  0  0  0  0  0  0
    9.9475    6.3588   10.5542 H   0  0  0  0  0  0  0  0  0  0  0  0
   10.6571    7.8911    8.7197 H   0  0  0  0  0  0  0  0  0  0  0  0
  1  2  1  0
  2  3  1  0
  3  4  1  0
  4  5  1  0
  5  6  2  0
  6  7  1  0
  7  8  2  0
  8  9  1  0
  9 10  2  0
  3 11  1  0
 11 12  2  0
 11 13  1  0
 13 14  1  0
 14 15  1  0
 15 16  2  0
 15 17  1  0
 17 18  1  0
 17 19  1  0
 19 20  2  0
 20 21  1  0
 21 22  2  0
 22 23  1  0
 23 24  2  0
 24 25  1  0
 25 26  2  0
 26 27  1  0
 27 28  2  0
 22 29  1  0
 29 30  2  0
 10  5  1  0
 30 14  1  0
 30 19  1  0
 28 23  1  0
  1 31  1  0
  1 32  1  0
  1 33  1  0
  2 34  1  0
  2 35  1  0
  4 36  1  0
  4 37  1  0
  6 38  1  0
  7 39  1  0
  8 40  1  0
  9 41  1  0
 10 42  1  0
 13 43  1  0
 13 44  1  0
 18 45  1  0
 18 46  1  0
 18 47  1  0
 20 48  1  0
 24 49  1  0
 25 50  1  0
 26 51  1  0
 27 52  1  0
 28 53  1  0
M  END
>  <meeko>  (3) 
{"is_sidechain": [false], "free_energy": -5.031, "intermolecular_energy": -8.521, "internal_energy": -1.213}

$$$$
AC-5216_fine14_out
     RDKit          3D

 53 56  0  0  0  0  0  0  0  0999 V2000
    5.8440   17.2380    5.6550 C   0  0  0  0  0  0  0  0  0  0  0  0
    5.6120   15.8240    5.1650 C   0  0  0  0  0  0  0  0  0  0  0  0
    5.5140   14.8830    6.2740 N   0  0  0  0  0  0  0  0  0  0  0  0
    4.2930   14.9830    7.0710 C   0  0  0  0  0  0  0  0  0  0  0  0
    3.0830   14.5430    6.3000 C   0  0  0  0  0  0  0  0  0  0  0  0
    2.9270   13.2000    5.9730 C   0  0  0  0  0  0  0  0  0  0  0  0
    1.8030   12.7900    5.2570 C   0  0  0  0  0  0  0  0  0  0  0  0
    0.8420   13.7260    4.8710 C   0  0  0  0  0  0  0  0  0  0  0  0
    1.0060   15.0700    5.2020 C   0  0  0  0  0  0  0  0  0  0  0  0
    2.1310   15.4810    5.9180 C   0  0  0  0  0  0  0  0  0  0  0  0
    6.5170   13.9480    6.5560 C   0  0  0  0  0  0  0  0  0  0  0  0
    7.3240   14.0760    7.4800 O   0  0  0  0  0  0  0  0  0  0  0  0
    6.5650   12.7340    5.6450 C   0  0  0  0  0  0  0  0  0  0  0  0
    7.9320   12.3830    5.3620 N   0  0  0  0  0  0  0  0  0  0  0  0
    8.7840   12.9660    4.3810 C   0  0  0  0  0  0  0  0  0  0  0  0
    8.5100   13.8690    3.6030 O   0  0  0  0  0  0  0  0  0  0  0  0
   10.0220   12.2730    4.4990 N   0  0  0  0  0  0  0  0  0  0  0  0
   11.2000   12.5170    3.7070 C   0  0  0  0  0  0  0  0  0  0  0  0
    9.9050   11.3170    5.5110 C   0  0  0  0  0  0  0  0  0  0  0  0
   10.7810   10.4010    6.0210 C   0  0  0  0  0  0  0  0  0  0  0  0
   10.4110    9.5730    7.0220 N   0  0  0  0  0  0  0  0  0  0  0  0
    9.1350    9.7160    7.4730 C   0  0  0  0  0  0  0  0  0  0  0  0
    8.7390    8.8330    8.5390 C   0  0  0  0  0  0  0  0  0  0  0  0
    9.6620    7.9420    9.0940 C   0  0  0  0  0  0  0  0  0  0  0  0
    9.2800    7.0890   10.1290 C   0  0  0  0  0  0  0  0  0  0  0  0
    7.9720    7.1230   10.6140 C   0  0  0  0  0  0  0  0  0  0  0  0
    7.0480    8.0100   10.0630 C   0  0  0  0  0  0  0  0  0  0  0  0
    7.4300    8.8650    9.0290 C   0  0  0  0  0  0  0  0  0  0  0  0
    8.1950   10.5870    7.0380 N   0  0  0  0  0  0  0  0  0  0  0  0
    8.6320   11.3740    6.0470 C   0  0  0  0  0  0  0  0  0  0  0  0
    5.8458   17.2492    6.7549 H   0  0  0  0  0  0  0  0  0  0  0  0
    6.8136   17.6005    5.2830 H   0  0  0  0  0  0  0  0  0  0  0  0
    5.0410   17.8914    5.2830 H   0  0  0  0  0  0  0  0  0  0  0  0
    4.6760   15.7949    4.5879 H   0  0  0  0  0  0  0  0  0  0  0  0
    6.4677   15.5312    4.5389 H   0  0  0  0  0  0  0  0  0  0  0  0
    4.3972   14.3469    7.9624 H   0  0  0  0  0  0  0  0  0  0  0  0
    4.1539   16.0379    7.3502 H   0  0  0  0  0  0  0  0  0  0  0  0
    3.6866   12.4651    6.2778 H   0  0  0  0  0  0  0  0  0  0  0  0
    1.6736   11.7292    4.9964 H   0  0  0  0  0  0  0  0  0  0  0  0
   -0.0446   13.4029    4.3057 H   0  0  0  0  0  0  0  0  0  0  0  0
    0.2481   15.8072    4.8986 H   0  0  0  0  0  0  0  0  0  0  0  0
    2.2637   16.5414    6.1787 H   0  0  0  0  0  0  0  0  0  0  0  0
    6.0668   11.8874    6.1401 H   0  0  0  0  0  0  0  0  0  0  0  0
    6.0509   12.9705    4.7018 H   0  0  0  0  0  0  0  0  0  0  0  0
   12.0583   12.6948    4.3716 H   0  0  0  0  0  0  0  0  0  0  0  0
   11.4028   11.6418    3.0723 H   0  0  0  0  0  0  0  0  0  0  0  0
   11.0385   13.4008    3.0723 H   0  0  0  0  0  0  0  0  0  0  0  0
   11.7999   10.3370    5.6115 H   0  0  0  0  0  0  0  0  0  0  0  0
   10.6935    7.9136    8.7130 H   0  0  0  0  0  0  0  0  0  0  0  0
   10.0096    6.3895   10.5630 H   0  0  0  0  0  0  0  0  0  0  0  0
    7.6701    6.4505   11.4304 H   0  0  0  0  0  0  0  0  0  0  0  0
    6.0165    8.0356   10.4441 H   0  0  0  0  0  0  0  0  0  0  0  0
    6.6997    9.5659    8.5983 H   0  0  0  0  0  0  0  0  0  0  0  0
  1  2  1  0
  2  3  1  0
  3  4  1  0
  4  5  1  0
  5  6  2  0
  6  7  1  0
  7  8  2  0
  8  9  1  0
  9 10  2  0
  3 11  1  0
 11 12  2  0
 11 13  1  0
 13 14  1  0
 14 15  1  0
 15 16  2  0
 15 17  1  0
 17 18  1  0
 17 19  1  0
 19 20  2  0
 20 21  1  0
 21 22  2  0
 22 23  1  0
 23 24  2  0
 24 25  1  0
 25 26  2  0
 26 27  1  0
 27 28  2  0
 22 29  1  0
 29 30  2  0
 10  5  1  0
 30 14  1  0
 30 19  1  0
 28 23  1  0
  1 31  1  0
  1 32  1  0
  1 33  1  0
  2 34  1  0
  2 35  1  0
  4 36  1  0
  4 37  1  0
  6 38  1  0
  7 39  1  0
  8 40  1  0
  9 41  1  0
 10 42  1  0
 13 43  1  0
 13 44  1  0
 18 45  1  0
 18 46  1  0
 18 47  1  0
 20 48  1  0
 24 49  1  0
 25 50  1  0
 26 51  1  0
 27 52  1  0
 28 53  1  0
M  END
>  <meeko>  (4) 
{"is_sidechain": [false], "free_energy": -5.014, "intermolecular_energy": -8.505, "internal_energy": -1.205}

$$$$
AC-5216_fine14_out
     RDKit          3D

 53 56  0  0  0  0  0  0  0  0999 V2000
    2.6030   15.7380   12.9470 C   0  0  0  0  0  0  0  0  0  0  0  0
    2.9700   14.4530   12.2340 C   0  0  0  0  0  0  0  0  0  0  0  0
    3.6820   14.7170   10.9890 N   0  0  0  0  0  0  0  0  0  0  0  0
    3.1830   15.8500   10.2140 C   0  0  0  0  0  0  0  0  0  0  0  0
    1.8600   15.5510    9.5720 C   0  0  0  0  0  0  0  0  0  0  0  0
    1.5860   14.2610    9.1300 C   0  0  0  0  0  0  0  0  0  0  0  0
    0.3570   13.9820    8.5330 C   0  0  0  0  0  0  0  0  0  0  0  0
   -0.5910   14.9950    8.3800 C   0  0  0  0  0  0  0  0  0  0  0  0
   -0.3090   16.2850    8.8250 C   0  0  0  0  0  0  0  0  0  0  0  0
    0.9210   16.5650    9.4230 C   0  0  0  0  0  0  0  0  0  0  0  0
    4.7680   13.9410   10.5670 C   0  0  0  0  0  0  0  0  0  0  0  0
    4.7660   12.7080   10.5770 O   0  0  0  0  0  0  0  0  0  0  0  0
    5.9830   14.7130   10.0810 C   0  0  0  0  0  0  0  0  0  0  0  0
    6.5620   14.0520    8.9410 N   0  0  0  0  0  0  0  0  0  0  0  0
    7.8740   13.5070    8.8370 C   0  0  0  0  0  0  0  0  0  0  0  0
    8.7440   13.5020    9.6960 O   0  0  0  0  0  0  0  0  0  0  0  0
    7.9560   12.9720    7.5200 N   0  0  0  0  0  0  0  0  0  0  0  0
    9.1030   12.3130    6.9510 C   0  0  0  0  0  0  0  0  0  0  0  0
    6.7380   13.1930    6.8720 C   0  0  0  0  0  0  0  0  0  0  0  0
    6.2920   12.8860    5.6170 C   0  0  0  0  0  0  0  0  0  0  0  0
    5.0420   13.2180    5.2270 N   0  0  0  0  0  0  0  0  0  0  0  0
    4.2820   13.8650    6.1520 C   0  0  0  0  0  0  0  0  0  0  0  0
    2.9490   14.2210    5.7370 C   0  0  0  0  0  0  0  0  0  0  0  0
    2.5420   15.5580    5.7500 C   0  0  0  0  0  0  0  0  0  0  0  0
    1.2530   15.9030    5.3450 C   0  0  0  0  0  0  0  0  0  0  0  0
    0.3650   14.9130    4.9250 C   0  0  0  0  0  0  0  0  0  0  0  0
    0.7670   13.5780    4.9100 C   0  0  0  0  0  0  0  0  0  0  0  0
    2.0570   13.2320    5.3140 C   0  0  0  0  0  0  0  0  0  0  0  0
    4.6280   14.2130    7.4130 N   0  0  0  0  0  0  0  0  0  0  0  0
    5.8770   13.8530    7.7290 C   0  0  0  0  0  0  0  0  0  0  0  0
    2.6482   15.5796   14.0346 H   0  0  0  0  0  0  0  0  0  0  0  0
    3.3107   16.5304   12.6621 H   0  0  0  0  0  0  0  0  0  0  0  0
    1.5835   16.0371   12.6621 H   0  0  0  0  0  0  0  0  0  0  0  0
    3.6127   13.8500   12.8923 H   0  0  0  0  0  0  0  0  0  0  0  0
    2.0414   13.9148   11.9930 H   0  0  0  0  0  0  0  0  0  0  0  0
    3.0657   16.7147   10.8838 H   0  0  0  0  0  0  0  0  0  0  0  0
    3.9088   16.0621    9.4151 H   0  0  0  0  0  0  0  0  0  0  0  0
    2.3352   13.4647    9.2508 H   0  0  0  0  0  0  0  0  0  0  0  0
    0.1346   12.9633    8.1826 H   0  0  0  0  0  0  0  0  0  0  0  0
   -1.5601   14.7751    7.9084 H   0  0  0  0  0  0  0  0  0  0  0  0
   -1.0561   17.0834    8.7050 H   0  0  0  0  0  0  0  0  0  0  0  0
    1.1459   17.5828    9.7745 H   0  0  0  0  0  0  0  0  0  0  0  0
    5.6780   15.7307    9.7960 H   0  0  0  0  0  0  0  0  0  0  0  0
    6.7283   14.7596   10.8887 H   0  0  0  0  0  0  0  0  0  0  0  0
    9.7504   11.9411    7.7588 H   0  0  0  0  0  0  0  0  0  0  0  0
    8.7700   11.4685    6.3298 H   0  0  0  0  0  0  0  0  0  0  0  0
    9.6648   13.0260    6.3298 H   0  0  0  0  0  0  0  0  0  0  0  0
    6.9589   12.3624    4.9162 H   0  0  0  0  0  0  0  0  0  0  0  0
    3.2407   16.3406    6.0807 H   0  0  0  0  0  0  0  0  0  0  0  0
    0.9365   16.9564    5.3568 H   0  0  0  0  0  0  0  0  0  0  0  0
   -0.6519   15.1852    4.6058 H   0  0  0  0  0  0  0  0  0  0  0  0
    0.0666   12.7969    4.5794 H   0  0  0  0  0  0  0  0  0  0  0  0
    2.3725   12.1783    5.2995 H   0  0  0  0  0  0  0  0  0  0  0  0
  1  2  1  0
  2  3  1  0
  3  4  1  0
  4  5  1  0
  5  6  2  0
  6  7  1  0
  7  8  2  0
  8  9  1  0
  9 10  2  0
  3 11  1  0
 11 12  2  0
 11 13  1  0
 13 14  1  0
 14 15  1  0
 15 16  2  0
 15 17  1  0
 17 18  1  0
 17 19  1  0
 19 20  2  0
 20 21  1  0
 21 22  2  0
 22 23  1  0
 23 24  2  0
 24 25  1  0
 25 26  2  0
 26 27  1  0
 27 28  2  0
 22 29  1  0
 29 30  2  0
 10  5  1  0
 30 14  1  0
 30 19  1  0
 28 23  1  0
  1 31  1  0
  1 32  1  0
  1 33  1  0
  2 34  1  0
  2 35  1  0
  4 36  1  0
  4 37  1  0
  6 38  1  0
  7 39  1  0
  8 40  1  0
  9 41  1  0
 10 42  1  0
 13 43  1  0
 13 44  1  0
 18 45  1  0
 18 46  1  0
 18 47  1  0
 20 48  1  0
 24 49  1  0
 25 50  1  0
 26 51  1  0
 27 52  1  0
 28 53  1  0
M  END
>  <meeko>  (5) 
{"is_sidechain": [false], "free_energy": -4.747, "intermolecular_energy": -6.886, "internal_energy": -2.449}

$$$$
AC-5216_fine14_out
     RDKit          3D

 53 56  0  0  0  0  0  0  0  0999 V2000
    4.4230   11.6130   11.1260 C   0  0  0  0  0  0  0  0  0  0  0  0
    3.3150   12.6080   10.8490 C   0  0  0  0  0  0  0  0  0  0  0  0
    3.7470   13.9760   11.1130 N   0  0  0  0  0  0  0  0  0  0  0  0
    4.9190   14.4150   10.3590 C   0  0  0  0  0  0  0  0  0  0  0  0
    4.5740   14.7720    8.9430 C   0  0  0  0  0  0  0  0  0  0  0  0
    3.8520   15.9320    8.6820 C   0  0  0  0  0  0  0  0  0  0  0  0
    3.5310   16.2650    7.3670 C   0  0  0  0  0  0  0  0  0  0  0  0
    3.9320   15.4350    6.3190 C   0  0  0  0  0  0  0  0  0  0  0  0
    4.6550   14.2730    6.5890 C   0  0  0  0  0  0  0  0  0  0  0  0
    4.9770   13.9400    7.9050 C   0  0  0  0  0  0  0  0  0  0  0  0
    3.0850   14.8090   12.0220 C   0  0  0  0  0  0  0  0  0  0  0  0
    3.5370   15.8900   12.4060 O   0  0  0  0  0  0  0  0  0  0  0  0
    1.7430   14.3060   12.5250 C   0  0  0  0  0  0  0  0  0  0  0  0
    0.6950   15.2040   12.1170 N   0  0  0  0  0  0  0  0  0  0  0  0
   -0.0510   16.0890   12.9460 C   0  0  0  0  0  0  0  0  0  0  0  0
    0.0640   16.2480   14.1530 O   0  0  0  0  0  0  0  0  0  0  0  0
   -0.9590   16.7490   12.0700 N   0  0  0  0  0  0  0  0  0  0  0  0
   -1.9250   17.7450   12.4560 C   0  0  0  0  0  0  0  0  0  0  0  0
   -0.7560   16.2710   10.7730 C   0  0  0  0  0  0  0  0  0  0  0  0
   -1.3510   16.5650    9.5780 C   0  0  0  0  0  0  0  0  0  0  0  0
   -0.9610   15.9460    8.4420 N   0  0  0  0  0  0  0  0  0  0  0  0
    0.0390   15.0330    8.5730 C   0  0  0  0  0  0  0  0  0  0  0  0
    0.4540   14.3720    7.3630 C   0  0  0  0  0  0  0  0  0  0  0  0
    1.0900   13.1290    7.4230 C   0  0  0  0  0  0  0  0  0  0  0  0
    1.4900   12.4880    6.2500 C   0  0  0  0  0  0  0  0  0  0  0  0
    1.2540   13.0860    5.0120 C   0  0  0  0  0  0  0  0  0  0  0  0
    0.6190   14.3260    4.9480 C   0  0  0  0  0  0  0  0  0  0  0  0
    0.2180   14.9680    6.1200 C   0  0  0  0  0  0  0  0  0  0  0  0
    0.6890   14.6730    9.7040 N   0  0  0  0  0  0  0  0  0  0  0  0
    0.2520   15.3250   10.7870 C   0  0  0  0  0  0  0  0  0  0  0  0
    4.5501   11.4989   12.2127 H   0  0  0  0  0  0  0  0  0  0  0  0
    4.1617   10.6405   10.6833 H   0  0  0  0  0  0  0  0  0  0  0  0
    5.3619   11.9770   10.6833 H   0  0  0  0  0  0  0  0  0  0  0  0
    3.0156   12.5250    9.7938 H   0  0  0  0  0  0  0  0  0  0  0  0
    2.4702   12.3782   11.5149 H   0  0  0  0  0  0  0  0  0  0  0  0
    5.3491   15.2985   10.8534 H   0  0  0  0  0  0  0  0  0  0  0  0
    5.6387   13.5835   10.3345 H   0  0  0  0  0  0  0  0  0  0  0  0
    3.5357   16.5837    9.5098 H   0  0  0  0  0  0  0  0  0  0  0  0
    2.9616   17.1820    7.1553 H   0  0  0  0  0  0  0  0  0  0  0  0
    3.6782   15.6969    5.2812 H   0  0  0  0  0  0  0  0  0  0  0  0
    4.9716   13.6186    5.7635 H   0  0  0  0  0  0  0  0  0  0  0  0
    5.5467   13.0239    8.1200 H   0  0  0  0  0  0  0  0  0  0  0  0
    1.5491   13.3068   12.1078 H   0  0  0  0  0  0  0  0  0  0  0  0
    1.7661   14.2543   13.6235 H   0  0  0  0  0  0  0  0  0  0  0  0
   -1.9774   17.7990   13.5534 H   0  0  0  0  0  0  0  0  0  0  0  0
   -1.6230   18.7236   12.0547 H   0  0  0  0  0  0  0  0  0  0  0  0
   -2.9124   17.4730   12.0547 H   0  0  0  0  0  0  0  0  0  0  0  0
   -2.1561   17.3137    9.5408 H   0  0  0  0  0  0  0  0  0  0  0  0
    1.2758   12.6546    8.3979 H   0  0  0  0  0  0  0  0  0  0  0  0
    1.9918   11.5105    6.3015 H   0  0  0  0  0  0  0  0  0  0  0  0
    1.5684   12.5800    4.0873 H   0  0  0  0  0  0  0  0  0  0  0  0
    0.4340   14.7986    3.9721 H   0  0  0  0  0  0  0  0  0  0  0  0
   -0.2848   15.9449    6.0663 H   0  0  0  0  0  0  0  0  0  0  0  0
  1  2  1  0
  2  3  1  0
  3  4  1  0
  4  5  1  0
  5  6  2  0
  6  7  1  0
  7  8  2  0
  8  9  1  0
  9 10  2  0
  3 11  1  0
 11 12  2  0
 11 13  1  0
 13 14  1  0
 14 15  1  0
 15 16  2  0
 15 17  1  0
 17 18  1  0
 17 19  1  0
 19 20  2  0
 20 21  1  0
 21 22  2  0
 22 23  1  0
 23 24  2  0
 24 25  1  0
 25 26  2  0
 26 27  1  0
 27 28  2  0
 22 29  1  0
 29 30  2  0
 10  5  1  0
 30 14  1  0
 30 19  1  0
 28 23  1  0
  1 31  1  0
  1 32  1  0
  1 33  1  0
  2 34  1  0
  2 35  1  0
  4 36  1  0
  4 37  1  0
  6 38  1  0
  7 39  1  0
  8 40  1  0
  9 41  1  0
 10 42  1  0
 13 43  1  0
 13 44  1  0
 18 45  1  0
 18 46  1  0
 18 47  1  0
 20 48  1  0
 24 49  1  0
 25 50  1  0
 26 51  1  0
 27 52  1  0
 28 53  1  0
M  END
>  <meeko>  (6) 
{"is_sidechain": [false], "free_energy": -4.729, "intermolecular_energy": -6.277, "internal_energy": -3.032}

$$$$
AC-5216_fine14_out
     RDKit          3D

 53 56  0  0  0  0  0  0  0  0999 V2000
   11.8170   10.2910    6.8940 C   0  0  0  0  0  0  0  0  0  0  0  0
   10.6380   10.9910    7.5370 C   0  0  0  0  0  0  0  0  0  0  0  0
    9.3800   10.5990    6.9140 N   0  0  0  0  0  0  0  0  0  0  0  0
    9.1470    9.1590    6.8310 C   0  0  0  0  0  0  0  0  0  0  0  0
    8.7680    8.5750    8.1610 C   0  0  0  0  0  0  0  0  0  0  0  0
    7.4950    8.7970    8.6720 C   0  0  0  0  0  0  0  0  0  0  0  0
    7.1420    8.2540    9.9070 C   0  0  0  0  0  0  0  0  0  0  0  0
    8.0660    7.4930   10.6240 C   0  0  0  0  0  0  0  0  0  0  0  0
    9.3410    7.2750   10.1050 C   0  0  0  0  0  0  0  0  0  0  0  0
    9.6940    7.8180    8.8690 C   0  0  0  0  0  0  0  0  0  0  0  0
    8.4580   11.5350    6.4320 C   0  0  0  0  0  0  0  0  0  0  0  0
    8.2780   11.7550    5.2310 O   0  0  0  0  0  0  0  0  0  0  0  0
    7.6660   12.2890    7.4870 C   0  0  0  0  0  0  0  0  0  0  0  0
    7.6710   13.6980    7.1940 N   0  0  0  0  0  0  0  0  0  0  0  0
    8.7610   14.6030    7.3400 C   0  0  0  0  0  0  0  0  0  0  0  0
    9.8880   14.3480    7.7390 O   0  0  0  0  0  0  0  0  0  0  0  0
    8.2570   15.8680    6.9230 N   0  0  0  0  0  0  0  0  0  0  0  0
    9.0010   17.1010    6.8950 C   0  0  0  0  0  0  0  0  0  0  0  0
    6.9200   15.7150    6.5460 C   0  0  0  0  0  0  0  0  0  0  0  0
    5.9870   16.5960    6.0770 C   0  0  0  0  0  0  0  0  0  0  0  0
    4.7350   16.1840    5.7800 N   0  0  0  0  0  0  0  0  0  0  0  0
    4.4810   14.8630    5.9770 C   0  0  0  0  0  0  0  0  0  0  0  0
    3.1460   14.4230    5.6610 C   0  0  0  0  0  0  0  0  0  0  0  0
    2.8780   13.0630    5.4810 C   0  0  0  0  0  0  0  0  0  0  0  0
    1.5850   12.6370    5.1780 C   0  0  0  0  0  0  0  0  0  0  0  0
    0.5540   13.5690    5.0530 C   0  0  0  0  0  0  0  0  0  0  0  0
    0.8180   14.9260    5.2320 C   0  0  0  0  0  0  0  0  0  0  0  0
    2.1100   15.3530    5.5360 C   0  0  0  0  0  0  0  0  0  0  0  0
    5.3300   13.9140    6.4330 N   0  0  0  0  0  0  0  0  0  0  0  0
    6.5490   14.3930    6.7070 C   0  0  0  0  0  0  0  0  0  0  0  0
   12.4811    9.8967    7.6773 H   0  0  0  0  0  0  0  0  0  0  0  0
   11.4546    9.4616    6.2688 H   0  0  0  0  0  0  0  0  0  0  0  0
   12.3717   11.0062    6.2688 H   0  0  0  0  0  0  0  0  0  0  0  0
   10.6052   10.7285    8.6047 H   0  0  0  0  0  0  0  0  0  0  0  0
   10.7659   12.0755    7.4043 H   0  0  0  0  0  0  0  0  0  0  0  0
    8.3330    8.9713    6.1153 H   0  0  0  0  0  0  0  0  0  0  0  0
   10.0819    8.6810    6.5031 H   0  0  0  0  0  0  0  0  0  0  0  0
    6.7691    9.3983    8.1050 H   0  0  0  0  0  0  0  0  0  0  0  0
    6.1353    8.4256   10.3159 H   0  0  0  0  0  0  0  0  0  0  0  0
    7.7882    7.0652   11.5986 H   0  0  0  0  0  0  0  0  0  0  0  0
   10.0693    6.6747   10.6699 H   0  0  0  0  0  0  0  0  0  0  0  0
   10.6997    7.6479    8.4572 H   0  0  0  0  0  0  0  0  0  0  0  0
    6.6289   11.9224    7.4948 H   0  0  0  0  0  0  0  0  0  0  0  0
    8.1281   12.1237    8.4715 H   0  0  0  0  0  0  0  0  0  0  0  0
    9.2008   17.4321    7.9248 H   0  0  0  0  0  0  0  0  0  0  0  0
    9.9542   16.9422    6.3694 H   0  0  0  0  0  0  0  0  0  0  0  0
    8.4162   17.8703    6.3694 H   0  0  0  0  0  0  0  0  0  0  0  0
    6.2583   17.6531    5.9396 H   0  0  0  0  0  0  0  0  0  0  0  0
    3.6893   12.3266    5.5786 H   0  0  0  0  0  0  0  0  0  0  0  0
    1.3778   11.5659    5.0375 H   0  0  0  0  0  0  0  0  0  0  0  0
   -0.4658   13.2333    4.8135 H   0  0  0  0  0  0  0  0  0  0  0  0
    0.0057   15.6611    5.1333 H   0  0  0  0  0  0  0  0  0  0  0  0
    2.3145   16.4245    5.6778 H   0  0  0  0  0  0  0  0  0  0  0  0
  1  2  1  0
  2  3  1  0
  3  4  1  0
  4  5  1  0
  5  6  2  0
  6  7  1  0
  7  8  2  0
  8  9  1  0
  9 10  2  0
  3 11  1  0
 11 12  2  0
 11 13  1  0
 13 14  1  0
 14 15  1  0
 15 16  2  0
 15 17  1  0
 17 18  1  0
 17 19  1  0
 19 20  2  0
 20 21  1  0
 21 22  2  0
 22 23  1  0
 23 24  2  0
 24 25  1  0
 25 26  2  0
 26 27  1  0
 27 28  2  0
 22 29  1  0
 29 30  2  0
 10  5  1  0
 30 14  1  0
 30 19  1  0
 28 23  1  0
  1 31  1  0
  1 32  1  0
  1 33  1  0
  2 34  1  0
  2 35  1  0
  4 36  1  0
  4 37  1  0
  6 38  1  0
  7 39  1  0
  8 40  1  0
  9 41  1  0
 10 42  1  0
 13 43  1  0
 13 44  1  0
 18 45  1  0
 18 46  1  0
 18 47  1  0
 20 48  1  0
 24 49  1  0
 25 50  1  0
 26 51  1  0
 27 52  1  0
 28 53  1  0
M  END
>  <meeko>  (7) 
{"is_sidechain": [false], "free_energy": -4.619, "intermolecular_energy": -7.93, "internal_energy": -1.224}

$$$$
AC-5216_fine14_out
     RDKit          3D

 53 56  0  0  0  0  0  0  0  0999 V2000
    5.0870   18.7220    8.5710 C   0  0  0  0  0  0  0  0  0  0  0  0
    4.8340   17.2400    8.3860 C   0  0  0  0  0  0  0  0  0  0  0  0
    5.0920   16.4970    9.6130 N   0  0  0  0  0  0  0  0  0  0  0  0
    3.9750   16.4340   10.5520 C   0  0  0  0  0  0  0  0  0  0  0  0
    2.7500   15.8340    9.9260 C   0  0  0  0  0  0  0  0  0  0  0  0
    2.7250   14.4760    9.6270 C   0  0  0  0  0  0  0  0  0  0  0  0
    1.5870   13.9180    9.0450 C   0  0  0  0  0  0  0  0  0  0  0  0
    0.4810   14.7210    8.7650 C   0  0  0  0  0  0  0  0  0  0  0  0
    0.5130   16.0820    9.0670 C   0  0  0  0  0  0  0  0  0  0  0  0
    1.6520   16.6410    9.6490 C   0  0  0  0  0  0  0  0  0  0  0  0
    6.3240   15.8840    9.8730 C   0  0  0  0  0  0  0  0  0  0  0  0
    7.3730   16.5120   10.0400 O   0  0  0  0  0  0  0  0  0  0  0  0
    6.3060   14.3670    9.9460 C   0  0  0  0  0  0  0  0  0  0  0  0
    6.8680   13.8100    8.7430 N   0  0  0  0  0  0  0  0  0  0  0  0
    8.1990   13.3380    8.5530 C   0  0  0  0  0  0  0  0  0  0  0  0
    9.1030   13.3200    9.3760 O   0  0  0  0  0  0  0  0  0  0  0  0
    8.2500   12.8940    7.2020 N   0  0  0  0  0  0  0  0  0  0  0  0
    9.4020   12.3290    6.5470 C   0  0  0  0  0  0  0  0  0  0  0  0
    6.9980   13.0960    6.6160 C   0  0  0  0  0  0  0  0  0  0  0  0
    6.5150   12.8470    5.3620 C   0  0  0  0  0  0  0  0  0  0  0  0
    5.2360   13.1430    5.0430 N   0  0  0  0  0  0  0  0  0  0  0  0
    4.4850   13.6900    6.0370 C   0  0  0  0  0  0  0  0  0  0  0  0
    3.1220   14.0060    5.6980 C   0  0  0  0  0  0  0  0  0  0  0  0
    2.2320   12.9890    5.3390 C   0  0  0  0  0  0  0  0  0  0  0  0
    0.9110   13.2940    5.0130 C   0  0  0  0  0  0  0  0  0  0  0  0
    0.4730   14.6180    5.0440 C   0  0  0  0  0  0  0  0  0  0  0  0
    1.3570   15.6360    5.4010 C   0  0  0  0  0  0  0  0  0  0  0  0
    2.6780   15.3310    5.7280 C   0  0  0  0  0  0  0  0  0  0  0  0
    4.8670   13.9730    7.3040 N   0  0  0  0  0  0  0  0  0  0  0  0
    6.1430   13.6550    7.5480 C   0  0  0  0  0  0  0  0  0  0  0  0
    5.1269   18.9559    9.6451 H   0  0  0  0  0  0  0  0  0  0  0  0
    6.0442   18.9920    8.1011 H   0  0  0  0  0  0  0  0  0  0  0  0
    4.2736   19.2943    8.1011 H   0  0  0  0  0  0  0  0  0  0  0  0
    3.7847   17.0905    8.0915 H   0  0  0  0  0  0  0  0  0  0  0  0
    5.5160   16.8679    7.6073 H   0  0  0  0  0  0  0  0  0  0  0  0
    4.2704   15.8195   11.4152 H   0  0  0  0  0  0  0  0  0  0  0  0
    3.7313   17.4612   10.8609 H   0  0  0  0  0  0  0  0  0  0  0  0
    3.5985   13.8451    9.8484 H   0  0  0  0  0  0  0  0  0  0  0  0
    1.5615   12.8444    8.8067 H   0  0  0  0  0  0  0  0  0  0  0  0
   -0.4163   14.2805    8.3060 H   0  0  0  0  0  0  0  0  0  0  0  0
   -0.3592   16.7150    8.8466 H   0  0  0  0  0  0  0  0  0  0  0  0
    1.6808   17.7145    9.8873 H   0  0  0  0  0  0  0  0  0  0  0  0
    6.8986   14.0368   10.8119 H   0  0  0  0  0  0  0  0  0  0  0  0
    5.2667   14.0227   10.0524 H   0  0  0  0  0  0  0  0  0  0  0  0
   10.1186   11.9776    7.3040 H   0  0  0  0  0  0  0  0  0  0  0  0
    9.0880   11.4826    5.9184 H   0  0  0  0  0  0  0  0  0  0  0  0
    9.8790   13.0954    5.9184 H   0  0  0  0  0  0  0  0  0  0  0  0
    7.1751   12.4005    4.6038 H   0  0  0  0  0  0  0  0  0  0  0  0
    2.5753   11.9443    5.3137 H   0  0  0  0  0  0  0  0  0  0  0  0
    0.2144   12.4906    4.7314 H   0  0  0  0  0  0  0  0  0  0  0  0
   -0.5690   14.8591    4.7870 H   0  0  0  0  0  0  0  0  0  0  0  0
    1.0120   16.6802    5.4247 H   0  0  0  0  0  0  0  0  0  0  0  0
    3.3727   16.1357    6.0104 H   0  0  0  0  0  0  0  0  0  0  0  0
  1  2  1  0
  2  3  1  0
  3  4  1  0
  4  5  1  0
  5  6  2  0
  6  7  1  0
  7  8  2  0
  8  9  1  0
  9 10  2  0
  3 11  1  0
 11 12  2  0
 11 13  1  0
 13 14  1  0
 14 15  1  0
 15 16  2  0
 15 17  1  0
 17 18  1  0
 17 19  1  0
 19 20  2  0
 20 21  1  0
 21 22  2  0
 22 23  1  0
 23 24  2  0
 24 25  1  0
 25 26  2  0
 26 27  1  0
 27 28  2  0
 22 29  1  0
 29 30  2  0
 10  5  1  0
 30 14  1  0
 30 19  1  0
 28 23  1  0
  1 31  1  0
  1 32  1  0
  1 33  1  0
  2 34  1  0
  2 35  1  0
  4 36  1  0
  4 37  1  0
  6 38  1  0
  7 39  1  0
  8 40  1  0
  9 41  1  0
 10 42  1  0
 13 43  1  0
 13 44  1  0
 18 45  1  0
 18 46  1  0
 18 47  1  0
 20 48  1  0
 24 49  1  0
 25 50  1  0
 26 51  1  0
 27 52  1  0
 28 53  1  0
M  END
>  <meeko>  (8) 
{"is_sidechain": [false], "free_energy": -4.58, "intermolecular_energy": -6.437, "internal_energy": -2.662}

$$$$
AC-5216_fine14_out
     RDKit          3D

 53 56  0  0  0  0  0  0  0  0999 V2000
    5.6910   13.4930    9.3440 C   0  0  0  0  0  0  0  0  0  0  0  0
    6.2520   13.4640    7.9370 C   0  0  0  0  0  0  0  0  0  0  0  0
    5.4340   14.2480    7.0200 N   0  0  0  0  0  0  0  0  0  0  0  0
    4.1480   14.6900    7.5530 C   0  0  0  0  0  0  0  0  0  0  0  0
    3.0160   14.3720    6.6200 C   0  0  0  0  0  0  0  0  0  0  0  0
    2.2440   15.4050    6.0990 C   0  0  0  0  0  0  0  0  0  0  0  0
    1.1920   15.1120    5.2330 C   0  0  0  0  0  0  0  0  0  0  0  0
    0.9170   13.7860    4.8920 C   0  0  0  0  0  0  0  0  0  0  0  0
    1.6960   12.7560    5.4180 C   0  0  0  0  0  0  0  0  0  0  0  0
    2.7490   13.0500    6.2860 C   0  0  0  0  0  0  0  0  0  0  0  0
    5.8530   14.5590    5.7200 C   0  0  0  0  0  0  0  0  0  0  0  0
    6.0770   15.7080    5.3350 O   0  0  0  0  0  0  0  0  0  0  0  0
    6.0250   13.3770    4.7810 C   0  0  0  0  0  0  0  0  0  0  0  0
    7.3810   13.3210    4.3030 N   0  0  0  0  0  0  0  0  0  0  0  0
    7.9560   14.0940    3.2530 C   0  0  0  0  0  0  0  0  0  0  0  0
    7.4030   14.9440    2.5700 O   0  0  0  0  0  0  0  0  0  0  0  0
    9.3110   13.6650    3.1700 N   0  0  0  0  0  0  0  0  0  0  0  0
   10.2960   14.1670    2.2460 C   0  0  0  0  0  0  0  0  0  0  0  0
    9.5280   12.6770    4.1330 C   0  0  0  0  0  0  0  0  0  0  0  0
   10.6310   11.9450    4.4720 C   0  0  0  0  0  0  0  0  0  0  0  0
   10.5750   11.0300    5.4650 N   0  0  0  0  0  0  0  0  0  0  0  0
    9.3720   10.8970    6.0850 C   0  0  0  0  0  0  0  0  0  0  0  0
    9.3120    9.9210    7.1430 C   0  0  0  0  0  0  0  0  0  0  0  0
   10.4530    9.1970    7.4970 C   0  0  0  0  0  0  0  0  0  0  0  0
   10.3960    8.2540    8.5240 C   0  0  0  0  0  0  0  0  0  0  0  0
    9.1960    8.0320    9.2000 C   0  0  0  0  0  0  0  0  0  0  0  0
    8.0550    8.7520    8.8500 C   0  0  0  0  0  0  0  0  0  0  0  0
    8.1120    9.6960    7.8240 C   0  0  0  0  0  0  0  0  0  0  0  0
    8.2270   11.5700    5.8260 N   0  0  0  0  0  0  0  0  0  0  0  0
    8.3560   12.4570    4.8330 C   0  0  0  0  0  0  0  0  0  0  0  0
    6.5171   13.4503   10.0691 H   0  0  0  0  0  0  0  0  0  0  0  0
    5.1207   14.4218    9.4923 H   0  0  0  0  0  0  0  0  0  0  0  0
    5.0279   12.6279    9.4923 H   0  0  0  0  0  0  0  0  0  0  0  0
    7.2712   13.8777    7.9499 H   0  0  0  0  0  0  0  0  0  0  0  0
    6.2576   12.4206    7.5889 H   0  0  0  0  0  0  0  0  0  0  0  0
    3.9691   14.1856    8.5140 H   0  0  0  0  0  0  0  0  0  0  0  0
    4.1887   15.7819    7.6796 H   0  0  0  0  0  0  0  0  0  0  0  0
    2.4628   16.4486    6.3692 H   0  0  0  0  0  0  0  0  0  0  0  0
    0.5783   15.9252    4.8181 H   0  0  0  0  0  0  0  0  0  0  0  0
    0.0865   13.5542    4.2090 H   0  0  0  0  0  0  0  0  0  0  0  0
    1.4807   11.7114    5.1489 H   0  0  0  0  0  0  0  0  0  0  0  0
    3.3642   12.2393    6.7034 H   0  0  0  0  0  0  0  0  0  0  0  0
    5.7899   12.4470    5.3193 H   0  0  0  0  0  0  0  0  0  0  0  0
    5.3449   13.4946    3.9244 H   0  0  0  0  0  0  0  0  0  0  0  0
   11.1392   14.5967    2.8066 H   0  0  0  0  0  0  0  0  0  0  0  0
   10.6582   13.3435    1.6130 H   0  0  0  0  0  0  0  0  0  0  0  0
    9.8426   14.9440    1.6130 H   0  0  0  0  0  0  0  0  0  0  0  0
   11.5754   12.1023    3.9304 H   0  0  0  0  0  0  0  0  0  0  0  0
   11.3996    9.3708    6.9644 H   0  0  0  0  0  0  0  0  0  0  0  0
   11.2966    7.6861    8.8004 H   0  0  0  0  0  0  0  0  0  0  0  0
    9.1503    7.2885   10.0094 H   0  0  0  0  0  0  0  0  0  0  0  0
    7.1090    8.5759    9.3830 H   0  0  0  0  0  0  0  0  0  0  0  0
    7.2108   10.2643    7.5504 H   0  0  0  0  0  0  0  0  0  0  0  0
  1  2  1  0
  2  3  1  0
  3  4  1  0
  4  5  1  0
  5  6  2  0
  6  7  1  0
  7  8  2  0
  8  9  1  0
  9 10  2  0
  3 11  1  0
 11 12  2  0
 11 13  1  0
 13 14  1  0
 14 15  1  0
 15 16  2  0
 15 17  1  0
 17 18  1  0
 17 19  1  0
 19 20  2  0
 20 21  1  0
 21 22  2  0
 22 23  1  0
 23 24  2  0
 24 25  1  0
 25 26  2  0
 26 27  1  0
 27 28  2  0
 22 29  1  0
 29 30  2  0
 10  5  1  0
 30 14  1  0
 30 19  1  0
 28 23  1  0
  1 31  1  0
  1 32  1  0
  1 33  1  0
  2 34  1  0
  2 35  1  0
  4 36  1  0
  4 37  1  0
  6 38  1  0
  7 39  1  0
  8 40  1  0
  9 41  1  0
 10 42  1  0
 13 43  1  0
 13 44  1  0
 18 45  1  0
 18 46  1  0
 18 47  1  0
 20 48  1  0
 24 49  1  0
 25 50  1  0
 26 51  1  0
 27 52  1  0
 28 53  1  0
M  END
>  <meeko>  (9) 
{"is_sidechain": [false], "free_energy": -4.571, "intermolecular_energy": -7.893, "internal_energy": -1.193}

$$$$
AC-5216_fine14_out
     RDKit          3D

 53 56  0  0  0  0  0  0  0  0999 V2000
    5.2200   13.9230    8.7620 C   0  0  0  0  0  0  0  0  0  0  0  0
    4.4660   15.0900    8.1590 C   0  0  0  0  0  0  0  0  0  0  0  0
    4.5340   15.0760    6.7030 N   0  0  0  0  0  0  0  0  0  0  0  0
    4.0260   13.8620    6.0670 C   0  0  0  0  0  0  0  0  0  0  0  0
    2.5370   13.7390    6.2040 C   0  0  0  0  0  0  0  0  0  0  0  0
    2.0020   12.7840    7.0620 C   0  0  0  0  0  0  0  0  0  0  0  0
    0.6180   12.6680    7.1900 C   0  0  0  0  0  0  0  0  0  0  0  0
   -0.2230   13.5070    6.4580 C   0  0  0  0  0  0  0  0  0  0  0  0
    0.3210   14.4620    5.5990 C   0  0  0  0  0  0  0  0  0  0  0  0
    1.7060   14.5780    5.4710 C   0  0  0  0  0  0  0  0  0  0  0  0
    5.0470   16.1480    5.9650 C   0  0  0  0  0  0  0  0  0  0  0  0
    4.3390   16.9880    5.4030 O   0  0  0  0  0  0  0  0  0  0  0  0
    6.5620   16.2340    5.8880 C   0  0  0  0  0  0  0  0  0  0  0  0
    7.0410   15.4850    4.7560 N   0  0  0  0  0  0  0  0  0  0  0  0
    7.1110   15.9220    3.4020 C   0  0  0  0  0  0  0  0  0  0  0  0
    6.7790   17.0120    2.9570 O   0  0  0  0  0  0  0  0  0  0  0  0
    7.6500   14.8210    2.6790 N   0  0  0  0  0  0  0  0  0  0  0  0
    7.9070   14.7910    1.2620 C   0  0  0  0  0  0  0  0  0  0  0  0
    7.8880   13.7730    3.5720 C   0  0  0  0  0  0  0  0  0  0  0  0
    8.3900   12.5130    3.4030 C   0  0  0  0  0  0  0  0  0  0  0  0
    8.5220   11.6750    4.4540 N   0  0  0  0  0  0  0  0  0  0  0  0
    8.1290   12.1660    5.6600 C   0  0  0  0  0  0  0  0  0  0  0  0
    8.2680   11.2730    6.7820 C   0  0  0  0  0  0  0  0  0  0  0  0
    8.6330    9.9390    6.5770 C   0  0  0  0  0  0  0  0  0  0  0  0
    8.7700    9.0740    7.6630 C   0  0  0  0  0  0  0  0  0  0  0  0
    8.5430    9.5390    8.9590 C   0  0  0  0  0  0  0  0  0  0  0  0
    8.1790   10.8690    9.1670 C   0  0  0  0  0  0  0  0  0  0  0  0
    8.0430   11.7350    8.0810 C   0  0  0  0  0  0  0  0  0  0  0  0
    7.6220   13.3910    5.9310 N   0  0  0  0  0  0  0  0  0  0  0  0
    7.5200   14.1650    4.8450 C   0  0  0  0  0  0  0  0  0  0  0  0
    5.1785   13.9873    9.8593 H   0  0  0  0  0  0  0  0  0  0  0  0
    4.7602   12.9797    8.4323 H   0  0  0  0  0  0  0  0  0  0  0  0
    6.2690   13.9545    8.4323 H   0  0  0  0  0  0  0  0  0  0  0  0
    3.4119   15.0323    8.4680 H   0  0  0  0  0  0  0  0  0  0  0  0
    4.9290   16.0215    8.5168 H   0  0  0  0  0  0  0  0  0  0  0  0
    4.2839   13.8862    4.9979 H   0  0  0  0  0  0  0  0  0  0  0  0
    4.4867   12.9972    6.5669 H   0  0  0  0  0  0  0  0  0  0  0  0
    2.6674   12.1232    7.6370 H   0  0  0  0  0  0  0  0  0  0  0  0
    0.1895   11.9152    7.8680 H   0  0  0  0  0  0  0  0  0  0  0  0
   -1.3146   13.4154    6.5583 H   0  0  0  0  0  0  0  0  0  0  0  0
   -0.3418   15.1239    5.0223 H   0  0  0  0  0  0  0  0  0  0  0  0
    2.1376   15.3295    4.7935 H   0  0  0  0  0  0  0  0  0  0  0  0
    6.8621   17.2869    5.7814 H   0  0  0  0  0  0  0  0  0  0  0  0
    6.9946   15.8139    6.8080 H   0  0  0  0  0  0  0  0  0  0  0  0
    8.9858   14.6651    1.0876 H   0  0  0  0  0  0  0  0  0  0  0  0
    7.3616   13.9504    0.8081 H   0  0  0  0  0  0  0  0  0  0  0  0
    7.5699   15.7346    0.8081 H   0  0  0  0  0  0  0  0  0  0  0  0
    8.6900   12.1775    2.3993 H   0  0  0  0  0  0  0  0  0  0  0  0
    8.8127    9.5703    5.5563 H   0  0  0  0  0  0  0  0  0  0  0  0
    9.0571    8.0251    7.4976 H   0  0  0  0  0  0  0  0  0  0  0  0
    8.6511    8.8573    9.8155 H   0  0  0  0  0  0  0  0  0  0  0  0
    7.9989   11.2360   10.1882 H   0  0  0  0  0  0  0  0  0  0  0  0
    7.7579   12.7841    8.2484 H   0  0  0  0  0  0  0  0  0  0  0  0
  1  2  1  0
  2  3  1  0
  3  4  1  0
  4  5  1  0
  5  6  2  0
  6  7  1  0
  7  8  2  0
  8  9  1  0
  9 10  2  0
  3 11  1  0
 11 12  2  0
 11 13  1  0
 13 14  1  0
 14 15  1  0
 15 16  2  0
 15 17  1  0
 17 18  1  0
 17 19  1  0
 19 20  2  0
 20 21  1  0
 21 22  2  0
 22 23  1  0
 23 24  2  0
 24 25  1  0
 25 26  2  0
 26 27  1  0
 27 28  2  0
 22 29  1  0
 29 30  2  0
 10  5  1  0
 30 14  1  0
 30 19  1  0
 28 23  1  0
  1 31  1  0
  1 32  1  0
  1 33  1  0
  2 34  1  0
  2 35  1  0
  4 36  1  0
  4 37  1  0
  6 38  1  0
  7 39  1  0
  8 40  1  0
  9 41  1  0
 10 42  1  0
 13 43  1  0
 13 44  1  0
 18 45  1  0
 18 46  1  0
 18 47  1  0
 20 48  1  0
 24 49  1  0
 25 50  1  0
 26 51  1  0
 27 52  1  0
 28 53  1  0
M  END
>  <meeko>  (10) 
{"is_sidechain": [false], "free_energy": -4.566, "intermolecular_energy": -7.353, "internal_energy": -1.726}

$$$$
