AC5216_meeko_out
     RDKit          3D

 53 56  0  0  0  0  0  0  0  0999 V2000
    5.4390   17.2900    5.4770 C   0  0  0  0  0  0  0  0  0  0  0  0
    5.5880   15.8180    5.1550 C   0  0  0  0  0  0  0  0  0  0  0  0
    5.4620   14.9940    6.3510 N   0  0  0  0  0  0  0  0  0  0  0  0
    4.2110   15.1520    7.0880 C   0  0  0  0  0  0  0  0  0  0  0  0
    3.0340   14.6330    6.3140 C   0  0  0  0  0  0  0  0  0  0  0  0
    2.9560   13.2800    6.0070 C   0  0  0  0  0  0  0  0  0  0  0  0
    1.8630   12.7970    5.2880 C   0  0  0  0  0  0  0  0  0  0  0  0
    0.8560   13.6710    4.8790 C   0  0  0  0  0  0  0  0  0  0  0  0
    0.9410   15.0280    5.1900 C   0  0  0  0  0  0  0  0  0  0  0  0
    2.0350   15.5110    5.9100 C   0  0  0  0  0  0  0  0  0  0  0  0
    6.4680   14.1120    6.7640 C   0  0  0  0  0  0  0  0  0  0  0  0
    7.3410   14.4120    7.5810 O   0  0  0  0  0  0  0  0  0  0  0  0
    6.4300   12.7270    6.1410 C   0  0  0  0  0  0  0  0  0  0  0  0
    7.7040   12.4200    5.5460 N   0  0  0  0  0  0  0  0  0  0  0  0
    8.7750   11.6880    6.1350 C   0  0  0  0  0  0  0  0  0  0  0  0
    8.8050   11.1880    7.2510 O   0  0  0  0  0  0  0  0  0  0  0  0
    9.8010   11.6630    5.1480 N   0  0  0  0  0  0  0  0  0  0  0  0
   11.0870   11.0300    5.2890 C   0  0  0  0  0  0  0  0  0  0  0  0
    9.3520   12.3550    4.0200 C   0  0  0  0  0  0  0  0  0  0  0  0
    9.9330   12.6240    2.8120 C   0  0  0  0  0  0  0  0  0  0  0  0
    9.2710   13.3300    1.8690 N   0  0  0  0  0  0  0  0  0  0  0  0
    8.0170   13.7400    2.2030 C   0  0  0  0  0  0  0  0  0  0  0  0
    7.3110   14.4940    1.1990 C   0  0  0  0  0  0  0  0  0  0  0  0
    6.6470   13.8330    0.1620 C   0  0  0  0  0  0  0  0  0  0  0  0
    5.9600   14.5620   -0.8090 C   0  0  0  0  0  0  0  0  0  0  0  0
    5.9360   15.9560   -0.7470 C   0  0  0  0  0  0  0  0  0  0  0  0
    6.5970   16.6190    0.2860 C   0  0  0  0  0  0  0  0  0  0  0  0
    7.2830   15.8900    1.2580 C   0  0  0  0  0  0  0  0  0  0  0  0
    7.3570   13.5260    3.3650 N   0  0  0  0  0  0  0  0  0  0  0  0
    8.0720   12.8220    4.2500 C   0  0  0  0  0  0  0  0  0  0  0  0
    5.4251   17.4270    6.5683 H   0  0  0  0  0  0  0  0  0  0  0  0
    6.2854   17.8466    5.0483 H   0  0  0  0  0  0  0  0  0  0  0  0
    4.4982   17.6657    5.0483 H   0  0  0  0  0  0  0  0  0  0  0  0
    4.8064   15.5282    4.4373 H   0  0  0  0  0  0  0  0  0  0  0  0
    6.5895   15.6575    4.7293 H   0  0  0  0  0  0  0  0  0  0  0  0
    4.2848   14.5988    8.0359 H   0  0  0  0  0  0  0  0  0  0  0  0
    4.0543   16.2262    7.2659 H   0  0  0  0  0  0  0  0  0  0  0  0
    3.7525   12.5933    6.3295 H   0  0  0  0  0  0  0  0  0  0  0  0
    1.7951   11.7267    5.0435 H   0  0  0  0  0  0  0  0  0  0  0  0
   -0.0055   13.2900    4.3110 H   0  0  0  0  0  0  0  0  0  0  0  0
    0.1464   15.7172    4.8681 H   0  0  0  0  0  0  0  0  0  0  0  0
    2.1061   16.5807    6.1563 H   0  0  0  0  0  0  0  0  0  0  0  0
    6.2028   11.9836    6.9192 H   0  0  0  0  0  0  0  0  0  0  0  0
    5.6527   12.7021    5.3631 H   0  0  0  0  0  0  0  0  0  0  0  0
   11.3233   10.9137    6.3570 H   0  0  0  0  0  0  0  0  0  0  0  0
   11.0633   10.0406    4.8088 H   0  0  0  0  0  0  0  0  0  0  0  0
   11.8566   11.6522    4.8088 H   0  0  0  0  0  0  0  0  0  0  0  0
   10.9508   12.2616    2.6054 H   0  0  0  0  0  0  0  0  0  0  0  0
    6.6661   12.7343    0.1112 H   0  0  0  0  0  0  0  0  0  0  0  0
    5.4375   14.0383   -1.6231 H   0  0  0  0  0  0  0  0  0  0  0  0
    5.3956   16.5315   -1.5130 H   0  0  0  0  0  0  0  0  0  0  0  0
    6.5777   17.7177    0.3348 H   0  0  0  0  0  0  0  0  0  0  0  0
    7.8030   16.4153    2.0726 H   0  0  0  0  0  0  0  0  0  0  0  0
  1  2  1  0
  2  3  1  0
  3  4  1  0
  4  5  1  0
  5  6  2  0
  6  7  1  0
  7  8  2  0
  8  9  1  0
  9 10  2  0
  3 11  1  0
 11 12  2  0
 11 13  1  0
 13 14  1  0
 14 15  1  0
 15 16  2  0
 15 17  1  0
 17 18  1  0
 17 19  1  0
 19 20  2  0
 20 21  1  0
 21 22  2  0
 22 23  1  0
 23 24  2  0
 24 25  1  0
 25 26  2  0
 26 27  1  0
 27 28  2  0
 22 29  1  0
 29 30  2  0
 10  5  1  0
 30 14  1  0
 30 19  1  0
 28 23  1  0
  1 31  1  0
  1 32  1  0
  1 33  1  0
  2 34  1  0
  2 35  1  0
  4 36  1  0
  4 37  1  0
  6 38  1  0
  7 39  1  0
  8 40  1  0
  9 41  1  0
 10 42  1  0
 13 43  1  0
 13 44  1  0
 18 45  1  0
 18 46  1  0
 18 47  1  0
 20 48  1  0
 24 49  1  0
 25 50  1  0
 26 51  1  0
 27 52  1  0
 28 53  1  0
M  END
>  <meeko>  (1) 
{"is_sidechain": [false], "free_energy": -6.277, "intermolecular_energy": -8.846, "internal_energy": -1.426}

$$$$
AC5216_meeko_out
     RDKit          3D

 53 56  0  0  0  0  0  0  0  0999 V2000
    4.5990   14.4390    9.5180 C   0  0  0  0  0  0  0  0  0  0  0  0
    5.3610   13.8850    8.3320 C   0  0  0  0  0  0  0  0  0  0  0  0
    4.9990   14.5700    7.0980 N   0  0  0  0  0  0  0  0  0  0  0  0
    3.7670   15.3530    7.1570 C   0  0  0  0  0  0  0  0  0  0  0  0
    2.6600   14.7170    6.3680 C   0  0  0  0  0  0  0  0  0  0  0  0
    1.7430   15.5200    5.6990 C   0  0  0  0  0  0  0  0  0  0  0  0
    0.7140   14.9300    4.9650 C   0  0  0  0  0  0  0  0  0  0  0  0
    0.6080   13.5390    4.9070 C   0  0  0  0  0  0  0  0  0  0  0  0
    1.5310   12.7410    5.5810 C   0  0  0  0  0  0  0  0  0  0  0  0
    2.5610   13.3310    6.3150 C   0  0  0  0  0  0  0  0  0  0  0  0
    5.7780   14.4860    5.9370 C   0  0  0  0  0  0  0  0  0  0  0  0
    6.3890   15.4440    5.4580 O   0  0  0  0  0  0  0  0  0  0  0  0
    5.8360   13.1180    5.2780 C   0  0  0  0  0  0  0  0  0  0  0  0
    7.2050   12.6940    5.1460 N   0  0  0  0  0  0  0  0  0  0  0  0
    7.9960   12.0200    6.1210 C   0  0  0  0  0  0  0  0  0  0  0  0
    7.6550   11.6800    7.2450 O   0  0  0  0  0  0  0  0  0  0  0  0
    9.2660   11.8280    5.5070 N   0  0  0  0  0  0  0  0  0  0  0  0
   10.4030   11.1840    6.1130 C   0  0  0  0  0  0  0  0  0  0  0  0
    9.2270   12.3690    4.2190 C   0  0  0  0  0  0  0  0  0  0  0  0
   10.1600   12.4510    3.2240 C   0  0  0  0  0  0  0  0  0  0  0  0
    9.8630   13.0380    2.0450 N   0  0  0  0  0  0  0  0  0  0  0  0
    8.6000   13.5270    1.9240 C   0  0  0  0  0  0  0  0  0  0  0  0
    8.2820   14.1540    0.6670 C   0  0  0  0  0  0  0  0  0  0  0  0
    6.9930   14.0520    0.1360 C   0  0  0  0  0  0  0  0  0  0  0  0
    6.6850   14.6610   -1.0810 C   0  0  0  0  0  0  0  0  0  0  0  0
    7.6640   15.3760   -1.7710 C   0  0  0  0  0  0  0  0  0  0  0  0
    8.9510   15.4800   -1.2440 C   0  0  0  0  0  0  0  0  0  0  0  0
    9.2600   14.8720   -0.0280 C   0  0  0  0  0  0  0  0  0  0  0  0
    7.6080   13.4960    2.8440 N   0  0  0  0  0  0  0  0  0  0  0  0
    7.9730   12.9010    3.9860 C   0  0  0  0  0  0  0  0  0  0  0  0
    5.0714   14.0956   10.4502 H   0  0  0  0  0  0  0  0  0  0  0  0
    4.6143   15.5383    9.4826 H   0  0  0  0  0  0  0  0  0  0  0  0
    3.5580   14.0854    9.4826 H   0  0  0  0  0  0  0  0  0  0  0  0
    6.4392   14.0125    8.5086 H   0  0  0  0  0  0  0  0  0  0  0  0
    5.1053   12.8206    8.2239 H   0  0  0  0  0  0  0  0  0  0  0  0
    3.4508   15.4395    8.2070 H   0  0  0  0  0  0  0  0  0  0  0  0
    3.9711   16.3421    6.7209 H   0  0  0  0  0  0  0  0  0  0  0  0
    1.8286   16.6156    5.7483 H   0  0  0  0  0  0  0  0  0  0  0  0
   -0.0134   15.5601    4.4323 H   0  0  0  0  0  0  0  0  0  0  0  0
   -0.2039   13.0729    4.3294 H   0  0  0  0  0  0  0  0  0  0  0  0
    1.4475   11.6452    5.5343 H   0  0  0  0  0  0  0  0  0  0  0  0
    3.2901   12.7034    6.8484 H   0  0  0  0  0  0  0  0  0  0  0  0
    5.2876   12.3921    5.8963 H   0  0  0  0  0  0  0  0  0  0  0  0
    5.3782   13.1780    4.2796 H   0  0  0  0  0  0  0  0  0  0  0  0
   10.3128   11.2351    7.2081 H   0  0  0  0  0  0  0  0  0  0  0  0
   10.4396   10.1310    5.7968 H   0  0  0  0  0  0  0  0  0  0  0  0
   11.3249   11.6940    5.7968 H   0  0  0  0  0  0  0  0  0  0  0  0
   11.1649   12.0338    3.3855 H   0  0  0  0  0  0  0  0  0  0  0  0
    6.2191   13.4899    0.6792 H   0  0  0  0  0  0  0  0  0  0  0  0
    5.6699   14.5773   -1.4964 H   0  0  0  0  0  0  0  0  0  0  0  0
    7.4211   15.8573   -2.7298 H   0  0  0  0  0  0  0  0  0  0  0  0
    9.7236   16.0426   -1.7886 H   0  0  0  0  0  0  0  0  0  0  0  0
   10.2757   14.9574    0.3856 H   0  0  0  0  0  0  0  0  0  0  0  0
  1  2  1  0
  2  3  1  0
  3  4  1  0
  4  5  1  0
  5  6  2  0
  6  7  1  0
  7  8  2  0
  8  9  1  0
  9 10  2  0
  3 11  1  0
 11 12  2  0
 11 13  1  0
 13 14  1  0
 14 15  1  0
 15 16  2  0
 15 17  1  0
 17 18  1  0
 17 19  1  0
 19 20  2  0
 20 21  1  0
 21 22  2  0
 22 23  1  0
 23 24  2  0
 24 25  1  0
 25 26  2  0
 26 27  1  0
 27 28  2  0
 22 29  1  0
 29 30  2  0
 10  5  1  0
 30 14  1  0
 30 19  1  0
 28 23  1  0
  1 31  1  0
  1 32  1  0
  1 33  1  0
  2 34  1  0
  2 35  1  0
  4 36  1  0
  4 37  1  0
  6 38  1  0
  7 39  1  0
  8 40  1  0
  9 41  1  0
 10 42  1  0
 13 43  1  0
 13 44  1  0
 18 45  1  0
 18 46  1  0
 18 47  1  0
 20 48  1  0
 24 49  1  0
 25 50  1  0
 26 51  1  0
 27 52  1  0
 28 53  1  0
M  END
>  <meeko>  (2) 
{"is_sidechain": [false], "free_energy": -6.201, "intermolecular_energy": -9.185, "internal_energy": -0.98}

$$$$
AC5216_meeko_out
     RDKit          3D

 53 56  0  0  0  0  0  0  0  0999 V2000
   11.4510   13.1820    1.5480 C   0  0  0  0  0  0  0  0  0  0  0  0
   10.1400   12.7930    2.1970 C   0  0  0  0  0  0  0  0  0  0  0  0
    9.1910   13.9000    2.1910 N   0  0  0  0  0  0  0  0  0  0  0  0
    9.2540   14.7680    1.0170 C   0  0  0  0  0  0  0  0  0  0  0  0
    7.9020   14.9790    0.4020 C   0  0  0  0  0  0  0  0  0  0  0  0
    7.2120   13.8950   -0.1300 C   0  0  0  0  0  0  0  0  0  0  0  0
    5.9550   14.0900   -0.7010 C   0  0  0  0  0  0  0  0  0  0  0  0
    5.3960   15.3680   -0.7390 C   0  0  0  0  0  0  0  0  0  0  0  0
    6.0940   16.4500   -0.2040 C   0  0  0  0  0  0  0  0  0  0  0  0
    7.3510   16.2550    0.3680 C   0  0  0  0  0  0  0  0  0  0  0  0
    8.2830   14.1160    3.2340 C   0  0  0  0  0  0  0  0  0  0  0  0
    8.0140   15.2340    3.6800 O   0  0  0  0  0  0  0  0  0  0  0  0
    7.6240   12.8720    3.8050 C   0  0  0  0  0  0  0  0  0  0  0  0
    7.5320   12.9770    5.2380 N   0  0  0  0  0  0  0  0  0  0  0  0
    8.5750   12.7620    6.1850 C   0  0  0  0  0  0  0  0  0  0  0  0
    9.7340   12.4510    5.9530 O   0  0  0  0  0  0  0  0  0  0  0  0
    7.9770   12.9860    7.4570 N   0  0  0  0  0  0  0  0  0  0  0  0
    8.6470   12.8850    8.7290 C   0  0  0  0  0  0  0  0  0  0  0  0
    6.6340   13.3200    7.2690 C   0  0  0  0  0  0  0  0  0  0  0  0
    5.6280   13.6260    8.1420 C   0  0  0  0  0  0  0  0  0  0  0  0
    4.3880   13.9180    7.6920 N   0  0  0  0  0  0  0  0  0  0  0  0
    4.2210   13.8860    6.3420 C   0  0  0  0  0  0  0  0  0  0  0  0
    2.8990   14.1970    5.8620 C   0  0  0  0  0  0  0  0  0  0  0  0
    2.0630   13.1780    5.3960 C   0  0  0  0  0  0  0  0  0  0  0  0
    0.7810   13.4790    4.9340 C   0  0  0  0  0  0  0  0  0  0  0  0
    0.3300   14.7990    4.9360 C   0  0  0  0  0  0  0  0  0  0  0  0
    1.1620   15.8180    5.4000 C   0  0  0  0  0  0  0  0  0  0  0  0
    2.4430   15.5180    5.8630 C   0  0  0  0  0  0  0  0  0  0  0  0
    5.1460   13.5970    5.3990 N   0  0  0  0  0  0  0  0  0  0  0  0
    6.3490   13.3180    5.9160 C   0  0  0  0  0  0  0  0  0  0  0  0
   12.1949   13.4027    2.3277 H   0  0  0  0  0  0  0  0  0  0  0  0
   11.8109   12.3519    0.9223 H   0  0  0  0  0  0  0  0  0  0  0  0
   11.2999   14.0740    0.9223 H   0  0  0  0  0  0  0  0  0  0  0  0
    9.7053   11.9467    1.6450 H   0  0  0  0  0  0  0  0  0  0  0  0
   10.3413   12.5169    3.2426 H   0  0  0  0  0  0  0  0  0  0  0  0
    9.6636   15.7435    1.3180 H   0  0  0  0  0  0  0  0  0  0  0  0
    9.8961   14.2813    0.2682 H   0  0  0  0  0  0  0  0  0  0  0  0
    7.6557   12.8889   -0.1005 H   0  0  0  0  0  0  0  0  0  0  0  0
    5.4038   13.2361   -1.1217 H   0  0  0  0  0  0  0  0  0  0  0  0
    4.4050   15.5218   -1.1909 H   0  0  0  0  0  0  0  0  0  0  0  0
    5.6533   17.4574   -0.2331 H   0  0  0  0  0  0  0  0  0  0  0  0
    7.9040   17.1070    0.7903 H   0  0  0  0  0  0  0  0  0  0  0  0
    6.6140   12.7680    3.3818 H   0  0  0  0  0  0  0  0  0  0  0  0
    8.2298   11.9912    3.5457 H   0  0  0  0  0  0  0  0  0  0  0  0
    7.9124   12.9957    9.5402 H   0  0  0  0  0  0  0  0  0  0  0  0
    9.1361   11.9030    8.8088 H   0  0  0  0  0  0  0  0  0  0  0  0
    9.4039   13.6792    8.8088 H   0  0  0  0  0  0  0  0  0  0  0  0
    5.8302   13.6347    9.2232 H   0  0  0  0  0  0  0  0  0  0  0  0
    2.4166   12.1364    5.3935 H   0  0  0  0  0  0  0  0  0  0  0  0
    0.1257   12.6748    4.5680 H   0  0  0  0  0  0  0  0  0  0  0  0
   -0.6806   15.0361    4.5721 H   0  0  0  0  0  0  0  0  0  0  0  0
    0.8074   16.8593    5.4007 H   0  0  0  0  0  0  0  0  0  0  0  0
    3.0962   16.3234    6.2300 H   0  0  0  0  0  0  0  0  0  0  0  0
  1  2  1  0
  2  3  1  0
  3  4  1  0
  4  5  1  0
  5  6  2  0
  6  7  1  0
  7  8  2  0
  8  9  1  0
  9 10  2  0
  3 11  1  0
 11 12  2  0
 11 13  1  0
 13 14  1  0
 14 15  1  0
 15 16  2  0
 15 17  1  0
 17 18  1  0
 17 19  1  0
 19 20  2  0
 20 21  1  0
 21 22  2  0
 22 23  1  0
 23 24  2  0
 24 25  1  0
 25 26  2  0
 26 27  1  0
 27 28  2  0
 22 29  1  0
 29 30  2  0
 10  5  1  0
 30 14  1  0
 30 19  1  0
 28 23  1  0
  1 31  1  0
  1 32  1  0
  1 33  1  0
  2 34  1  0
  2 35  1  0
  4 36  1  0
  4 37  1  0
  6 38  1  0
  7 39  1  0
  8 40  1  0
  9 41  1  0
 10 42  1  0
 13 43  1  0
 13 44  1  0
 18 45  1  0
 18 46  1  0
 18 47  1  0
 20 48  1  0
 24 49  1  0
 25 50  1  0
 26 51  1  0
 27 52  1  0
 28 53  1  0
M  END
>  <meeko>  (3) 
{"is_sidechain": [false], "free_energy": -6.135, "intermolecular_energy": -8.844, "internal_energy": -1.228}

$$$$
AC5216_meeko_out
     RDKit          3D

 53 56  0  0  0  0  0  0  0  0999 V2000
    1.3370   19.0080    4.2480 C   0  0  0  0  0  0  0  0  0  0  0  0
    1.7000   17.7240    4.9640 C   0  0  0  0  0  0  0  0  0  0  0  0
    0.6120   17.2610    5.8160 N   0  0  0  0  0  0  0  0  0  0  0  0
   -0.1640   16.1430    5.2840 C   0  0  0  0  0  0  0  0  0  0  0  0
    0.3600   14.8200    5.7610 C   0  0  0  0  0  0  0  0  0  0  0  0
   -0.1180   14.2790    6.9490 C   0  0  0  0  0  0  0  0  0  0  0  0
    0.3680   13.0500    7.3940 C   0  0  0  0  0  0  0  0  0  0  0  0
    1.3310   12.3690    6.6470 C   0  0  0  0  0  0  0  0  0  0  0  0
    1.8060   12.9180    5.4570 C   0  0  0  0  0  0  0  0  0  0  0  0
    1.3190   14.1480    5.0120 C   0  0  0  0  0  0  0  0  0  0  0  0
    0.3300   17.8450    7.0560 C   0  0  0  0  0  0  0  0  0  0  0  0
   -0.8080   18.1530    7.4190 O   0  0  0  0  0  0  0  0  0  0  0  0
    1.5260   18.0860    7.9610 C   0  0  0  0  0  0  0  0  0  0  0  0
    1.7590   16.9320    8.7880 N   0  0  0  0  0  0  0  0  0  0  0  0
    1.1190   16.6130   10.0210 C   0  0  0  0  0  0  0  0  0  0  0  0
    0.2570   17.2610   10.5970 O   0  0  0  0  0  0  0  0  0  0  0  0
    1.6980   15.3810   10.4370 N   0  0  0  0  0  0  0  0  0  0  0  0
    1.3640   14.6590   11.6380 C   0  0  0  0  0  0  0  0  0  0  0  0
    2.6440   14.9870    9.4860 C   0  0  0  0  0  0  0  0  0  0  0  0
    3.4700   13.9020    9.4020 C   0  0  0  0  0  0  0  0  0  0  0  0
    4.3110   13.7540    8.3550 N   0  0  0  0  0  0  0  0  0  0  0  0
    4.2740   14.7390    7.4170 C   0  0  0  0  0  0  0  0  0  0  0  0
    5.1710   14.5820    6.3010 C   0  0  0  0  0  0  0  0  0  0  0  0
    5.7390   15.7050    5.6930 C   0  0  0  0  0  0  0  0  0  0  0  0
    6.6110   15.5530    4.6140 C   0  0  0  0  0  0  0  0  0  0  0  0
    6.9170   14.2780    4.1380 C   0  0  0  0  0  0  0  0  0  0  0  0
    6.3520   13.1550    4.7430 C   0  0  0  0  0  0  0  0  0  0  0  0
    5.4820   13.3060    5.8220 C   0  0  0  0  0  0  0  0  0  0  0  0
    3.4970   15.8460    7.4080 N   0  0  0  0  0  0  0  0  0  0  0  0
    2.6910   15.9270    8.4740 C   0  0  0  0  0  0  0  0  0  0  0  0
    1.1157   19.7908    4.9885 H   0  0  0  0  0  0  0  0  0  0  0  0
    2.1801   19.3273    3.6177 H   0  0  0  0  0  0  0  0  0  0  0  0
    0.4515   18.8386    3.6177 H   0  0  0  0  0  0  0  0  0  0  0  0
    1.9231   16.9487    4.2163 H   0  0  0  0  0  0  0  0  0  0  0  0
    2.5764   17.9193    5.5994 H   0  0  0  0  0  0  0  0  0  0  0  0
   -1.2095   16.2494    5.6090 H   0  0  0  0  0  0  0  0  0  0  0  0
   -0.0852   16.1651    4.1871 H   0  0  0  0  0  0  0  0  0  0  0  0
   -0.8765   14.8181    7.5356 H   0  0  0  0  0  0  0  0  0  0  0  0
   -0.0072   12.6173    8.3331 H   0  0  0  0  0  0  0  0  0  0  0  0
    1.7148   11.3995    6.9974 H   0  0  0  0  0  0  0  0  0  0  0  0
    2.5649   12.3817    4.8684 H   0  0  0  0  0  0  0  0  0  0  0  0
    1.6922   14.5834    4.0733 H   0  0  0  0  0  0  0  0  0  0  0  0
    2.4164   18.2777    7.3443 H   0  0  0  0  0  0  0  0  0  0  0  0
    1.3225   18.9552    8.6038 H   0  0  0  0  0  0  0  0  0  0  0  0
    1.6420   15.2600   12.5164 H   0  0  0  0  0  0  0  0  0  0  0  0
    0.2823   14.4600   11.6573 H   0  0  0  0  0  0  0  0  0  0  0  0
    1.9126   13.7058   11.6573 H   0  0  0  0  0  0  0  0  0  0  0  0
    3.4501   13.1405   10.1956 H   0  0  0  0  0  0  0  0  0  0  0  0
    5.4981   16.7114    6.0660 H   0  0  0  0  0  0  0  0  0  0  0  0
    7.0572   16.4390    4.1387 H   0  0  0  0  0  0  0  0  0  0  0  0
    7.6030   14.1581    3.2865 H   0  0  0  0  0  0  0  0  0  0  0  0
    6.5932   12.1493    4.3683 H   0  0  0  0  0  0  0  0  0  0  0  0
    5.0391   12.4186    6.2977 H   0  0  0  0  0  0  0  0  0  0  0  0
  1  2  1  0
  2  3  1  0
  3  4  1  0
  4  5  1  0
  5  6  2  0
  6  7  1  0
  7  8  2  0
  8  9  1  0
  9 10  2  0
  3 11  1  0
 11 12  2  0
 11 13  1  0
 13 14  1  0
 14 15  1  0
 15 16  2  0
 15 17  1  0
 17 18  1  0
 17 19  1  0
 19 20  2  0
 20 21  1  0
 21 22  2  0
 22 23  1  0
 23 24  2  0
 24 25  1  0
 25 26  2  0
 26 27  1  0
 27 28  2  0
 22 29  1  0
 29 30  2  0
 10  5  1  0
 30 14  1  0
 30 19  1  0
 28 23  1  0
  1 31  1  0
  1 32  1  0
  1 33  1  0
  2 34  1  0
  2 35  1  0
  4 36  1  0
  4 37  1  0
  6 38  1  0
  7 39  1  0
  8 40  1  0
  9 41  1  0
 10 42  1  0
 13 43  1  0
 13 44  1  0
 18 45  1  0
 18 46  1  0
 18 47  1  0
 20 48  1  0
 24 49  1  0
 25 50  1  0
 26 51  1  0
 27 52  1  0
 28 53  1  0
M  END
>  <meeko>  (4) 
{"is_sidechain": [false], "free_energy": -6.122, "intermolecular_energy": -7.412, "internal_energy": -2.642}

$$$$
AC5216_meeko_out
     RDKit          3D

 53 56  0  0  0  0  0  0  0  0999 V2000
    7.4880   14.2040   -0.1160 C   0  0  0  0  0  0  0  0  0  0  0  0
    6.9800   14.1160    1.3080 C   0  0  0  0  0  0  0  0  0  0  0  0
    8.0520   14.3340    2.2720 N   0  0  0  0  0  0  0  0  0  0  0  0
    8.3680   15.7330    2.5480 C   0  0  0  0  0  0  0  0  0  0  0  0
    7.8340   16.1760    3.8790 C   0  0  0  0  0  0  0  0  0  0  0  0
    6.4950   16.5270    4.0000 C   0  0  0  0  0  0  0  0  0  0  0  0
    5.9980   16.9390    5.2370 C   0  0  0  0  0  0  0  0  0  0  0  0
    6.8440   16.9980    6.3440 C   0  0  0  0  0  0  0  0  0  0  0  0
    8.1870   16.6440    6.2150 C   0  0  0  0  0  0  0  0  0  0  0  0
    8.6840   16.2320    4.9780 C   0  0  0  0  0  0  0  0  0  0  0  0
    8.7310   13.2770    2.8900 C   0  0  0  0  0  0  0  0  0  0  0  0
    9.9520   13.1200    2.8210 O   0  0  0  0  0  0  0  0  0  0  0  0
    7.8660   12.3040    3.6730 C   0  0  0  0  0  0  0  0  0  0  0  0
    7.8740   12.6520    5.0700 N   0  0  0  0  0  0  0  0  0  0  0  0
    8.9840   12.6040    5.9620 C   0  0  0  0  0  0  0  0  0  0  0  0
   10.1280   12.2590    5.7030 O   0  0  0  0  0  0  0  0  0  0  0  0
    8.4750   13.0410    7.2180 N   0  0  0  0  0  0  0  0  0  0  0  0
    9.2350   13.1610    8.4360 C   0  0  0  0  0  0  0  0  0  0  0  0
    7.1170   13.3360    7.0720 C   0  0  0  0  0  0  0  0  0  0  0  0
    6.1720   13.7860    7.9510 C   0  0  0  0  0  0  0  0  0  0  0  0
    4.8990   13.9960    7.5480 N   0  0  0  0  0  0  0  0  0  0  0  0
    4.6370   13.7330    6.2400 C   0  0  0  0  0  0  0  0  0  0  0  0
    3.2800   13.9550    5.8100 C   0  0  0  0  0  0  0  0  0  0  0  0
    2.4810   12.8770    5.4200 C   0  0  0  0  0  0  0  0  0  0  0  0
    1.1660   13.0920    5.0070 C   0  0  0  0  0  0  0  0  0  0  0  0
    0.6450   14.3850    4.9820 C   0  0  0  0  0  0  0  0  0  0  0  0
    1.4390   15.4640    5.3710 C   0  0  0  0  0  0  0  0  0  0  0  0
    2.7540   15.2500    5.7850 C   0  0  0  0  0  0  0  0  0  0  0  0
    5.4980   13.2870    5.2950 N   0  0  0  0  0  0  0  0  0  0  0  0
    6.7370   13.1030    5.7640 C   0  0  0  0  0  0  0  0  0  0  0  0
    8.5718   14.3918   -0.1077 H   0  0  0  0  0  0  0  0  0  0  0  0
    7.2839   13.2571   -0.6373 H   0  0  0  0  0  0  0  0  0  0  0  0
    6.9773   15.0270   -0.6373 H   0  0  0  0  0  0  0  0  0  0  0  0
    6.2032   14.8802    1.4583 H   0  0  0  0  0  0  0  0  0  0  0  0
    6.5724   13.1068    1.4674 H   0  0  0  0  0  0  0  0  0  0  0  0
    9.4609   15.8581    2.5439 H   0  0  0  0  0  0  0  0  0  0  0  0
    7.8951   16.3491    1.7691 H   0  0  0  0  0  0  0  0  0  0  0  0
    5.8301   16.4803    3.1249 H   0  0  0  0  0  0  0  0  0  0  0  0
    4.9387   17.2173    5.3390 H   0  0  0  0  0  0  0  0  0  0  0  0
    6.4522   17.3237    7.3189 H   0  0  0  0  0  0  0  0  0  0  0  0
    8.8542   16.6896    7.0883 H   0  0  0  0  0  0  0  0  0  0  0  0
    9.7428   15.9529    4.8728 H   0  0  0  0  0  0  0  0  0  0  0  0
    6.8346   12.3464    3.2930 H   0  0  0  0  0  0  0  0  0  0  0  0
    8.2667   11.2868    3.5521 H   0  0  0  0  0  0  0  0  0  0  0  0
    8.5624   13.0548    9.2999 H   0  0  0  0  0  0  0  0  0  0  0  0
   10.0015   12.3728    8.4691 H   0  0  0  0  0  0  0  0  0  0  0  0
    9.7214   14.1471    8.4691 H   0  0  0  0  0  0  0  0  0  0  0  0
    6.4504   13.9793    8.9975 H   0  0  0  0  0  0  0  0  0  0  0  0
    2.8901   11.8561    5.4387 H   0  0  0  0  0  0  0  0  0  0  0  0
    0.5398   12.2410    4.7009 H   0  0  0  0  0  0  0  0  0  0  0  0
   -0.3918   14.5542    4.6557 H   0  0  0  0  0  0  0  0  0  0  0  0
    1.0280   16.4842    5.3513 H   0  0  0  0  0  0  0  0  0  0  0  0
    3.3782   16.1020    6.0924 H   0  0  0  0  0  0  0  0  0  0  0  0
  1  2  1  0
  2  3  1  0
  3  4  1  0
  4  5  1  0
  5  6  2  0
  6  7  1  0
  7  8  2  0
  8  9  1  0
  9 10  2  0
  3 11  1  0
 11 12  2  0
 11 13  1  0
 13 14  1  0
 14 15  1  0
 15 16  2  0
 15 17  1  0
 17 18  1  0
 17 19  1  0
 19 20  2  0
 20 21  1  0
 21 22  2  0
 22 23  1  0
 23 24  2  0
 24 25  1  0
 25 26  2  0
 26 27  1  0
 27 28  2  0
 22 29  1  0
 29 30  2  0
 10  5  1  0
 30 14  1  0
 30 19  1  0
 28 23  1  0
  1 31  1  0
  1 32  1  0
  1 33  1  0
  2 34  1  0
  2 35  1  0
  4 36  1  0
  4 37  1  0
  6 38  1  0
  7 39  1  0
  8 40  1  0
  9 41  1  0
 10 42  1  0
 13 43  1  0
 13 44  1  0
 18 45  1  0
 18 46  1  0
 18 47  1  0
 20 48  1  0
 24 49  1  0
 25 50  1  0
 26 51  1  0
 27 52  1  0
 28 53  1  0
M  END
>  <meeko>  (5) 
{"is_sidechain": [false], "free_energy": -6.06, "intermolecular_energy": -7.77, "internal_energy": -2.196}

$$$$
AC5216_meeko_out
     RDKit          3D

 53 56  0  0  0  0  0  0  0  0999 V2000
    4.3260   18.0710    7.7880 C   0  0  0  0  0  0  0  0  0  0  0  0
    3.6880   16.7780    8.2510 C   0  0  0  0  0  0  0  0  0  0  0  0
    4.2830   15.6220    7.5920 N   0  0  0  0  0  0  0  0  0  0  0  0
    4.1260   15.5810    6.1400 C   0  0  0  0  0  0  0  0  0  0  0  0
    2.9020   14.8170    5.7300 C   0  0  0  0  0  0  0  0  0  0  0  0
    2.9620   13.4330    5.6110 C   0  0  0  0  0  0  0  0  0  0  0  0
    1.8250   12.7220    5.2290 C   0  0  0  0  0  0  0  0  0  0  0  0
    0.6340   13.4000    4.9670 C   0  0  0  0  0  0  0  0  0  0  0  0
    0.5810   14.7880    5.0890 C   0  0  0  0  0  0  0  0  0  0  0  0
    1.7190   15.5000    5.4700 C   0  0  0  0  0  0  0  0  0  0  0  0
    4.9600   14.6210    8.3000 C   0  0  0  0  0  0  0  0  0  0  0  0
    4.3880   13.6940    8.8780 O   0  0  0  0  0  0  0  0  0  0  0  0
    6.4750   14.7340    8.3210 C   0  0  0  0  0  0  0  0  0  0  0  0
    7.0670   13.5030    7.8690 N   0  0  0  0  0  0  0  0  0  0  0  0
    7.4330   12.3800    8.6660 C   0  0  0  0  0  0  0  0  0  0  0  0
    7.3090   12.2590    9.8770 O   0  0  0  0  0  0  0  0  0  0  0  0
    7.9730   11.4310    7.7530 N   0  0  0  0  0  0  0  0  0  0  0  0
    8.4810   10.1280    8.0980 C   0  0  0  0  0  0  0  0  0  0  0  0
    7.9280   11.9730    6.4660 C   0  0  0  0  0  0  0  0  0  0  0  0
    8.3130   11.4890    5.2470 C   0  0  0  0  0  0  0  0  0  0  0  0
    8.1590   12.2310    4.1290 N   0  0  0  0  0  0  0  0  0  0  0  0
    7.6050   13.4620    4.3020 C   0  0  0  0  0  0  0  0  0  0  0  0
    7.4410   14.2540    3.1100 C   0  0  0  0  0  0  0  0  0  0  0  0
    7.4150   13.6390    1.8550 C   0  0  0  0  0  0  0  0  0  0  0  0
    7.2530   14.4050    0.7010 C   0  0  0  0  0  0  0  0  0  0  0  0
    7.1170   15.7900    0.7970 C   0  0  0  0  0  0  0  0  0  0  0  0
    7.1420   16.4070    2.0470 C   0  0  0  0  0  0  0  0  0  0  0  0
    7.3030   15.6420    3.2020 C   0  0  0  0  0  0  0  0  0  0  0  0
    7.1930   14.0300    5.4590 N   0  0  0  0  0  0  0  0  0  0  0  0
    7.3760   13.2390    6.5230 C   0  0  0  0  0  0  0  0  0  0  0  0
    4.6208   18.6684    8.6633 H   0  0  0  0  0  0  0  0  0  0  0  0
    5.2158   17.8445    7.1822 H   0  0  0  0  0  0  0  0  0  0  0  0
    3.6049   18.6393    7.1822 H   0  0  0  0  0  0  0  0  0  0  0  0
    3.8266   16.6803    9.3378 H   0  0  0  0  0  0  0  0  0  0  0  0
    2.6190   16.8094    7.9935 H   0  0  0  0  0  0  0  0  0  0  0  0
    4.0453   16.6109    5.7620 H   0  0  0  0  0  0  0  0  0  0  0  0
    5.0036   15.0703    5.7170 H   0  0  0  0  0  0  0  0  0  0  0  0
    3.9025   12.9012    5.8174 H   0  0  0  0  0  0  0  0  0  0  0  0
    1.8670   11.6269    5.1342 H   0  0  0  0  0  0  0  0  0  0  0  0
   -0.2629   12.8397    4.6643 H   0  0  0  0  0  0  0  0  0  0  0  0
   -0.3587   15.3221    4.8847 H   0  0  0  0  0  0  0  0  0  0  0  0
    1.6805   16.5953    5.5641 H   0  0  0  0  0  0  0  0  0  0  0  0
    6.7883   15.5538    7.6579 H   0  0  0  0  0  0  0  0  0  0  0  0
    6.8075   14.9380    9.3495 H   0  0  0  0  0  0  0  0  0  0  0  0
    8.5201   10.0278    9.1927 H   0  0  0  0  0  0  0  0  0  0  0  0
    7.8186    9.3544    7.6824 H   0  0  0  0  0  0  0  0  0  0  0  0
    9.4922   10.0068    7.6824 H   0  0  0  0  0  0  0  0  0  0  0  0
    8.7534   10.4835    5.1757 H   0  0  0  0  0  0  0  0  0  0  0  0
    7.5227   12.5470    1.7774 H   0  0  0  0  0  0  0  0  0  0  0  0
    7.2325   13.9172   -0.2847 H   0  0  0  0  0  0  0  0  0  0  0  0
    6.9901   16.3949   -0.1129 H   0  0  0  0  0  0  0  0  0  0  0  0
    7.0345   17.4991    2.1224 H   0  0  0  0  0  0  0  0  0  0  0  0
    7.3214   16.1316    4.1869 H   0  0  0  0  0  0  0  0  0  0  0  0
  1  2  1  0
  2  3  1  0
  3  4  1  0
  4  5  1  0
  5  6  2  0
  6  7  1  0
  7  8  2  0
  8  9  1  0
  9 10  2  0
  3 11  1  0
 11 12  2  0
 11 13  1  0
 13 14  1  0
 14 15  1  0
 15 16  2  0
 15 17  1  0
 17 18  1  0
 17 19  1  0
 19 20  2  0
 20 21  1  0
 21 22  2  0
 22 23  1  0
 23 24  2  0
 24 25  1  0
 25 26  2  0
 26 27  1  0
 27 28  2  0
 22 29  1  0
 29 30  2  0
 10  5  1  0
 30 14  1  0
 30 19  1  0
 28 23  1  0
  1 31  1  0
  1 32  1  0
  1 33  1  0
  2 34  1  0
  2 35  1  0
  4 36  1  0
  4 37  1  0
  6 38  1  0
  7 39  1  0
  8 40  1  0
  9 41  1  0
 10 42  1  0
 13 43  1  0
 13 44  1  0
 18 45  1  0
 18 46  1  0
 18 47  1  0
 20 48  1  0
 24 49  1  0
 25 50  1  0
 26 51  1  0
 27 52  1  0
 28 53  1  0
M  END
>  <meeko>  (6) 
{"is_sidechain": [false], "free_energy": -5.956, "intermolecular_energy": -8.32, "internal_energy": -1.5}

$$$$
AC5216_meeko_out
     RDKit          3D

 53 56  0  0  0  0  0  0  0  0999 V2000
    3.4690   16.8700    8.9000 C   0  0  0  0  0  0  0  0  0  0  0  0
    4.5690   16.7220    7.8700 C   0  0  0  0  0  0  0  0  0  0  0  0
    4.8140   15.3220    7.5460 N   0  0  0  0  0  0  0  0  0  0  0  0
    4.7160   14.9840    6.1280 C   0  0  0  0  0  0  0  0  0  0  0  0
    3.3400   14.5110    5.7590 C   0  0  0  0  0  0  0  0  0  0  0  0
    2.3150   15.4360    5.5990 C   0  0  0  0  0  0  0  0  0  0  0  0
    1.0360   14.9980    5.2550 C   0  0  0  0  0  0  0  0  0  0  0  0
    0.7910   13.6360    5.0750 C   0  0  0  0  0  0  0  0  0  0  0  0
    1.8250   12.7140    5.2370 C   0  0  0  0  0  0  0  0  0  0  0  0
    3.1040   13.1530    5.5810 C   0  0  0  0  0  0  0  0  0  0  0  0
    5.1240   14.3700    8.5230 C   0  0  0  0  0  0  0  0  0  0  0  0
    4.3060   13.5580    8.9640 O   0  0  0  0  0  0  0  0  0  0  0  0
    6.5560   14.3820    9.0290 C   0  0  0  0  0  0  0  0  0  0  0  0
    7.0860   13.0440    9.0390 N   0  0  0  0  0  0  0  0  0  0  0  0
    7.1740   12.1610   10.1540 C   0  0  0  0  0  0  0  0  0  0  0  0
    6.8130   12.3790   11.3020 O   0  0  0  0  0  0  0  0  0  0  0  0
    7.7700   10.9720    9.6460 N   0  0  0  0  0  0  0  0  0  0  0  0
    8.0610    9.7860   10.4100 C   0  0  0  0  0  0  0  0  0  0  0  0
    8.0250   11.1470    8.2840 C   0  0  0  0  0  0  0  0  0  0  0  0
    8.5770   10.3310    7.3360 C   0  0  0  0  0  0  0  0  0  0  0  0
    8.7150   10.7490    6.0590 N   0  0  0  0  0  0  0  0  0  0  0  0
    8.2750   12.0090    5.7940 C   0  0  0  0  0  0  0  0  0  0  0  0
    8.4230   12.4560    4.4330 C   0  0  0  0  0  0  0  0  0  0  0  0
    7.3280   12.9860    3.7440 C   0  0  0  0  0  0  0  0  0  0  0  0
    7.4710   13.4210    2.4270 C   0  0  0  0  0  0  0  0  0  0  0  0
    8.7110   13.3290    1.7930 C   0  0  0  0  0  0  0  0  0  0  0  0
    9.8050   12.8020    2.4770 C   0  0  0  0  0  0  0  0  0  0  0  0
    9.6630   12.3670    3.7940 C   0  0  0  0  0  0  0  0  0  0  0  0
    7.7170   12.8900    6.6560 N   0  0  0  0  0  0  0  0  0  0  0  0
    7.6120   12.4090    7.9000 C   0  0  0  0  0  0  0  0  0  0  0  0
    3.9018   16.8118    9.9096 H   0  0  0  0  0  0  0  0  0  0  0  0
    2.9728   17.8430    8.7693 H   0  0  0  0  0  0  0  0  0  0  0  0
    2.7333   16.0627    8.7693 H   0  0  0  0  0  0  0  0  0  0  0  0
    4.2744   17.2545    6.9537 H   0  0  0  0  0  0  0  0  0  0  0  0
    5.4934   17.1456    8.2896 H   0  0  0  0  0  0  0  0  0  0  0  0
    4.9568   15.8767    5.5322 H   0  0  0  0  0  0  0  0  0  0  0  0
    5.4237   14.1673    5.9226 H   0  0  0  0  0  0  0  0  0  0  0  0
    2.5115   16.5087    5.7430 H   0  0  0  0  0  0  0  0  0  0  0  0
    0.2212   15.7256    5.1257 H   0  0  0  0  0  0  0  0  0  0  0  0
   -0.2176   13.2895    4.8054 H   0  0  0  0  0  0  0  0  0  0  0  0
    1.6321   11.6406    5.0935 H   0  0  0  0  0  0  0  0  0  0  0  0
    3.9212   12.4281    5.7106 H   0  0  0  0  0  0  0  0  0  0  0  0
    7.1702   15.0121    8.3690 H   0  0  0  0  0  0  0  0  0  0  0  0
    6.5739   14.7850   10.0524 H   0  0  0  0  0  0  0  0  0  0  0  0
    8.0040   10.0183   11.4837 H   0  0  0  0  0  0  0  0  0  0  0  0
    7.3283    9.0030   10.1649 H   0  0  0  0  0  0  0  0  0  0  0  0
    9.0729    9.4310   10.1649 H   0  0  0  0  0  0  0  0  0  0  0  0
    8.9128    9.3218    7.6166 H   0  0  0  0  0  0  0  0  0  0  0  0
    6.3503   13.0601    4.2426 H   0  0  0  0  0  0  0  0  0  0  0  0
    6.6069   13.8365    1.8879 H   0  0  0  0  0  0  0  0  0  0  0  0
    8.8248   13.6722    0.7541 H   0  0  0  0  0  0  0  0  0  0  0  0
   10.7821   12.7291    1.9770 H   0  0  0  0  0  0  0  0  0  0  0  0
   10.5288   11.9528    4.3314 H   0  0  0  0  0  0  0  0  0  0  0  0
  1  2  1  0
  2  3  1  0
  3  4  1  0
  4  5  1  0
  5  6  2  0
  6  7  1  0
  7  8  2  0
  8  9  1  0
  9 10  2  0
  3 11  1  0
 11 12  2  0
 11 13  1  0
 13 14  1  0
 14 15  1  0
 15 16  2  0
 15 17  1  0
 17 18  1  0
 17 19  1  0
 19 20  2  0
 20 21  1  0
 21 22  2  0
 22 23  1  0
 23 24  2  0
 24 25  1  0
 25 26  2  0
 26 27  1  0
 27 28  2  0
 22 29  1  0
 29 30  2  0
 10  5  1  0
 30 14  1  0
 30 19  1  0
 28 23  1  0
  1 31  1  0
  1 32  1  0
  1 33  1  0
  2 34  1  0
  2 35  1  0
  4 36  1  0
  4 37  1  0
  6 38  1  0
  7 39  1  0
  8 40  1  0
  9 41  1  0
 10 42  1  0
 13 43  1  0
 13 44  1  0
 18 45  1  0
 18 46  1  0
 18 47  1  0
 20 48  1  0
 24 49  1  0
 25 50  1  0
 26 51  1  0
 27 52  1  0
 28 53  1  0
M  END
>  <meeko>  (7) 
{"is_sidechain": [false], "free_energy": -5.914, "intermolecular_energy": -8.298, "internal_energy": -1.463}

$$$$
AC5216_meeko_out
     RDKit          3D

 53 56  0  0  0  0  0  0  0  0999 V2000
    6.9590   16.6130    5.0940 C   0  0  0  0  0  0  0  0  0  0  0  0
    5.6770   15.8080    5.0560 C   0  0  0  0  0  0  0  0  0  0  0  0
    5.5640   14.9280    6.2130 N   0  0  0  0  0  0  0  0  0  0  0  0
    4.3440   15.0880    7.0000 C   0  0  0  0  0  0  0  0  0  0  0  0
    3.1300   14.6100    6.2580 C   0  0  0  0  0  0  0  0  0  0  0  0
    3.0140   13.2650    5.9240 C   0  0  0  0  0  0  0  0  0  0  0  0
    1.8870   12.8200    5.2350 C   0  0  0  0  0  0  0  0  0  0  0  0
    0.8830   13.7220    4.8820 C   0  0  0  0  0  0  0  0  0  0  0  0
    1.0060   15.0690    5.2210 C   0  0  0  0  0  0  0  0  0  0  0  0
    2.1340   15.5150    5.9110 C   0  0  0  0  0  0  0  0  0  0  0  0
    6.5530   13.9950    6.5450 C   0  0  0  0  0  0  0  0  0  0  0  0
    7.3480   14.1500    7.4740 O   0  0  0  0  0  0  0  0  0  0  0  0
    6.5990   12.7450    5.6820 C   0  0  0  0  0  0  0  0  0  0  0  0
    7.9650   12.3910    5.4010 N   0  0  0  0  0  0  0  0  0  0  0  0
    8.8240   12.9800    4.4290 C   0  0  0  0  0  0  0  0  0  0  0  0
    8.5570   13.8920    3.6590 O   0  0  0  0  0  0  0  0  0  0  0  0
   10.0580   12.2800    4.5440 N   0  0  0  0  0  0  0  0  0  0  0  0
   11.2410   12.5270    3.7590 C   0  0  0  0  0  0  0  0  0  0  0  0
    9.9330   11.3150    5.5470 C   0  0  0  0  0  0  0  0  0  0  0  0
   10.8030   10.3890    6.0500 C   0  0  0  0  0  0  0  0  0  0  0  0
   10.4250    9.5530    7.0420 N   0  0  0  0  0  0  0  0  0  0  0  0
    9.1490    9.6980    7.4890 C   0  0  0  0  0  0  0  0  0  0  0  0
    8.7450    8.8060    8.5450 C   0  0  0  0  0  0  0  0  0  0  0  0
    9.6650    7.9130    9.1020 C   0  0  0  0  0  0  0  0  0  0  0  0
    9.2750    7.0510   10.1270 C   0  0  0  0  0  0  0  0  0  0  0  0
    7.9620    7.0780   10.6000 C   0  0  0  0  0  0  0  0  0  0  0  0
    7.0420    7.9670   10.0470 C   0  0  0  0  0  0  0  0  0  0  0  0
    7.4310    8.8300    9.0220 C   0  0  0  0  0  0  0  0  0  0  0  0
    8.2150   10.5770    7.0590 N   0  0  0  0  0  0  0  0  0  0  0  0
    8.6580   11.3720    6.0780 C   0  0  0  0  0  0  0  0  0  0  0  0
    7.2474   16.7941    6.1400 H   0  0  0  0  0  0  0  0  0  0  0  0
    7.7581   16.0542    4.5848 H   0  0  0  0  0  0  0  0  0  0  0  0
    6.8028   17.5755    4.5848 H   0  0  0  0  0  0  0  0  0  0  0  0
    4.8212   16.4990    5.0476 H   0  0  0  0  0  0  0  0  0  0  0  0
    5.6870   15.1858    4.1489 H   0  0  0  0  0  0  0  0  0  0  0  0
    4.4427   14.5089    7.9300 H   0  0  0  0  0  0  0  0  0  0  0  0
    4.2135   16.1597    7.2108 H   0  0  0  0  0  0  0  0  0  0  0  0
    3.8076   12.5559    6.2021 H   0  0  0  0  0  0  0  0  0  0  0  0
    1.7892   11.7570    4.9695 H   0  0  0  0  0  0  0  0  0  0  0  0
   -0.0053   13.3708    4.3365 H   0  0  0  0  0  0  0  0  0  0  0  0
    0.2137   15.7802    4.9445 H   0  0  0  0  0  0  0  0  0  0  0  0
    2.2343   16.5772    6.1788 H   0  0  0  0  0  0  0  0  0  0  0  0
    6.1102   11.9162    6.2150 H   0  0  0  0  0  0  0  0  0  0  0  0
    6.0745   12.9405    4.7350 H   0  0  0  0  0  0  0  0  0  0  0  0
   12.0950   12.7053    4.4290 H   0  0  0  0  0  0  0  0  0  0  0  0
   11.4491   11.6529    3.1244 H   0  0  0  0  0  0  0  0  0  0  0  0
   11.0819   13.4113    3.1244 H   0  0  0  0  0  0  0  0  0  0  0  0
   11.8227   10.3234    5.6427 H   0  0  0  0  0  0  0  0  0  0  0  0
   10.7002    7.8900    8.7307 H   0  0  0  0  0  0  0  0  0  0  0  0
   10.0022    6.3499   10.5626 H   0  0  0  0  0  0  0  0  0  0  0  0
    7.6538    6.3985   11.4082 H   0  0  0  0  0  0  0  0  0  0  0  0
    6.0072    7.9883   10.4194 H   0  0  0  0  0  0  0  0  0  0  0  0
    6.7024    9.5307    8.5883 H   0  0  0  0  0  0  0  0  0  0  0  0
  1  2  1  0
  2  3  1  0
  3  4  1  0
  4  5  1  0
  5  6  2  0
  6  7  1  0
  7  8  2  0
  8  9  1  0
  9 10  2  0
  3 11  1  0
 11 12  2  0
 11 13  1  0
 13 14  1  0
 14 15  1  0
 15 16  2  0
 15 17  1  0
 17 18  1  0
 17 19  1  0
 19 20  2  0
 20 21  1  0
 21 22  2  0
 22 23  1  0
 23 24  2  0
 24 25  1  0
 25 26  2  0
 26 27  1  0
 27 28  2  0
 22 29  1  0
 29 30  2  0
 10  5  1  0
 30 14  1  0
 30 19  1  0
 28 23  1  0
  1 31  1  0
  1 32  1  0
  1 33  1  0
  2 34  1  0
  2 35  1  0
  4 36  1  0
  4 37  1  0
  6 38  1  0
  7 39  1  0
  8 40  1  0
  9 41  1  0
 10 42  1  0
 13 43  1  0
 13 44  1  0
 18 45  1  0
 18 46  1  0
 18 47  1  0
 20 48  1  0
 24 49  1  0
 25 50  1  0
 26 51  1  0
 27 52  1  0
 28 53  1  0
M  END
>  <meeko>  (8) 
{"is_sidechain": [false], "free_energy": -5.898, "intermolecular_energy": -8.528, "internal_energy": -1.21}

$$$$
AC5216_meeko_out
     RDKit          3D

 53 56  0  0  0  0  0  0  0  0999 V2000
    0.8390   19.0280   11.1000 C   0  0  0  0  0  0  0  0  0  0  0  0
    0.5000   18.1840    9.8890 C   0  0  0  0  0  0  0  0  0  0  0  0
   -0.7890   17.5220   10.0430 N   0  0  0  0  0  0  0  0  0  0  0  0
   -0.7660   16.2840   10.8190 C   0  0  0  0  0  0  0  0  0  0  0  0
    0.3940   15.4090   10.4460 C   0  0  0  0  0  0  0  0  0  0  0  0
    0.3990   14.7600    9.2170 C   0  0  0  0  0  0  0  0  0  0  0  0
    1.4760   13.9460    8.8690 C   0  0  0  0  0  0  0  0  0  0  0  0
    2.5440   13.7860    9.7540 C   0  0  0  0  0  0  0  0  0  0  0  0
    2.5320   14.4410   10.9850 C   0  0  0  0  0  0  0  0  0  0  0  0
    1.4540   15.2550   11.3330 C   0  0  0  0  0  0  0  0  0  0  0  0
   -1.9670   18.0350    9.4870 C   0  0  0  0  0  0  0  0  0  0  0  0
   -2.3140   19.2130    9.6000 O   0  0  0  0  0  0  0  0  0  0  0  0
   -2.8200   17.0440    8.7130 C   0  0  0  0  0  0  0  0  0  0  0  0
   -2.8990   17.4360    7.3310 N   0  0  0  0  0  0  0  0  0  0  0  0
   -3.8740   18.2830    6.7300 C   0  0  0  0  0  0  0  0  0  0  0  0
   -4.8190   18.8300    7.2800 O   0  0  0  0  0  0  0  0  0  0  0  0
   -3.5140   18.3550    5.3550 N   0  0  0  0  0  0  0  0  0  0  0  0
   -4.2130   19.1030    4.3420 C   0  0  0  0  0  0  0  0  0  0  0  0
   -2.3700   17.5800    5.1510 C   0  0  0  0  0  0  0  0  0  0  0  0
   -1.6240   17.3110    4.0380 C   0  0  0  0  0  0  0  0  0  0  0  0
   -0.5380   16.5110    4.1100 N   0  0  0  0  0  0  0  0  0  0  0  0
   -0.2500   16.0070    5.3410 C   0  0  0  0  0  0  0  0  0  0  0  0
    0.9070   15.1530    5.4190 C   0  0  0  0  0  0  0  0  0  0  0  0
    0.7910   13.7850    5.1530 C   0  0  0  0  0  0  0  0  0  0  0  0
    1.9120   12.9590    5.2260 C   0  0  0  0  0  0  0  0  0  0  0  0
    3.1540   13.4950    5.5640 C   0  0  0  0  0  0  0  0  0  0  0  0
    3.2740   14.8590    5.8300 C   0  0  0  0  0  0  0  0  0  0  0  0
    2.1540   15.6870    5.7560 C   0  0  0  0  0  0  0  0  0  0  0  0
   -0.9210   16.2120    6.4980 N   0  0  0  0  0  0  0  0  0  0  0  0
   -1.9830   17.0120    6.3500 C   0  0  0  0  0  0  0  0  0  0  0  0
    0.6120   18.4628   12.0160 H   0  0  0  0  0  0  0  0  0  0  0  0
    1.9090   19.2823   11.0818 H   0  0  0  0  0  0  0  0  0  0  0  0
    0.2422   19.9518   11.0818 H   0  0  0  0  0  0  0  0  0  0  0  0
    0.4653   18.8315    9.0005 H   0  0  0  0  0  0  0  0  0  0  0  0
    1.2743   17.4104    9.7799 H   0  0  0  0  0  0  0  0  0  0  0  0
   -0.6920   16.5357   11.8873 H   0  0  0  0  0  0  0  0  0  0  0  0
   -1.6921   15.7307   10.6040 H   0  0  0  0  0  0  0  0  0  0  0  0
   -0.4436   14.8881    8.5215 H   0  0  0  0  0  0  0  0  0  0  0  0
    1.4844   13.4300    7.8976 H   0  0  0  0  0  0  0  0  0  0  0  0
    3.3941   13.1438    9.4804 H   0  0  0  0  0  0  0  0  0  0  0  0
    3.3735   14.3157   11.6823 H   0  0  0  0  0  0  0  0  0  0  0  0
    1.4424   15.7723   12.3037 H   0  0  0  0  0  0  0  0  0  0  0  0
   -2.3689   16.0432    8.7824 H   0  0  0  0  0  0  0  0  0  0  0  0
   -3.8328   17.0276    9.1419 H   0  0  0  0  0  0  0  0  0  0  0  0
   -4.8890   19.8264    4.8213 H   0  0  0  0  0  0  0  0  0  0  0  0
   -3.4857   19.6402    3.7155 H   0  0  0  0  0  0  0  0  0  0  0  0
   -4.7982   18.4137    3.7155 H   0  0  0  0  0  0  0  0  0  0  0  0
   -1.9114   17.7513    3.0718 H   0  0  0  0  0  0  0  0  0  0  0  0
   -0.1874   13.3594    4.8854 H   0  0  0  0  0  0  0  0  0  0  0  0
    1.8164   11.8833    5.0167 H   0  0  0  0  0  0  0  0  0  0  0  0
    4.0381   12.8430    5.6208 H   0  0  0  0  0  0  0  0  0  0  0  0
    4.2532   15.2822    6.0985 H   0  0  0  0  0  0  0  0  0  0  0  0
    2.2523   16.7628    5.9633 H   0  0  0  0  0  0  0  0  0  0  0  0
  1  2  1  0
  2  3  1  0
  3  4  1  0
  4  5  1  0
  5  6  2  0
  6  7  1  0
  7  8  2  0
  8  9  1  0
  9 10  2  0
  3 11  1  0
 11 12  2  0
 11 13  1  0
 13 14  1  0
 14 15  1  0
 15 16  2  0
 15 17  1  0
 17 18  1  0
 17 19  1  0
 19 20  2  0
 20 21  1  0
 21 22  2  0
 22 23  1  0
 23 24  2  0
 24 25  1  0
 25 26  2  0
 26 27  1  0
 27 28  2  0
 22 29  1  0
 29 30  2  0
 10  5  1  0
 30 14  1  0
 30 19  1  0
 28 23  1  0
  1 31  1  0
  1 32  1  0
  1 33  1  0
  2 34  1  0
  2 35  1  0
  4 36  1  0
  4 37  1  0
  6 38  1  0
  7 39  1  0
  8 40  1  0
  9 41  1  0
 10 42  1  0
 13 43  1  0
 13 44  1  0
 18 45  1  0
 18 46  1  0
 18 47  1  0
 20 48  1  0
 24 49  1  0
 25 50  1  0
 26 51  1  0
 27 52  1  0
 28 53  1  0
M  END
>  <meeko>  (9) 
{"is_sidechain": [false], "free_energy": -5.88, "intermolecular_energy": -7.59, "internal_energy": -2.124}

$$$$
AC5216_meeko_out
     RDKit          3D

 53 56  0  0  0  0  0  0  0  0999 V2000
    4.3040   13.6270    5.6950 C   0  0  0  0  0  0  0  0  0  0  0  0
    5.6730   13.1820    5.2280 C   0  0  0  0  0  0  0  0  0  0  0  0
    6.7330   13.7800    6.0320 N   0  0  0  0  0  0  0  0  0  0  0  0
    6.6690   15.2330    6.1660 C   0  0  0  0  0  0  0  0  0  0  0  0
    7.2520   15.9320    4.9730 C   0  0  0  0  0  0  0  0  0  0  0  0
    6.4070   16.5120    4.0340 C   0  0  0  0  0  0  0  0  0  0  0  0
    6.9480   17.1620    2.9250 C   0  0  0  0  0  0  0  0  0  0  0  0
    8.3320   17.2280    2.7610 C   0  0  0  0  0  0  0  0  0  0  0  0
    9.1740   16.6440    3.7080 C   0  0  0  0  0  0  0  0  0  0  0  0
    8.6320   15.9930    4.8170 C   0  0  0  0  0  0  0  0  0  0  0  0
    7.7400   13.0160    6.6340 C   0  0  0  0  0  0  0  0  0  0  0  0
    8.3730   13.3870    7.6250 O   0  0  0  0  0  0  0  0  0  0  0  0
    8.0210   11.6690    5.9910 C   0  0  0  0  0  0  0  0  0  0  0  0
    9.3500   11.6550    5.4370 N   0  0  0  0  0  0  0  0  0  0  0  0
   10.5220   11.0990    6.0270 C   0  0  0  0  0  0  0  0  0  0  0  0
   10.6110   10.5320    7.1060 O   0  0  0  0  0  0  0  0  0  0  0  0
   11.5660   11.3440    5.0900 N   0  0  0  0  0  0  0  0  0  0  0  0
   12.9450   10.9600    5.2490 C   0  0  0  0  0  0  0  0  0  0  0  0
   11.0300   12.0200    3.9900 C   0  0  0  0  0  0  0  0  0  0  0  0
   11.5880   12.4850    2.8320 C   0  0  0  0  0  0  0  0  0  0  0  0
   10.8340   13.1200    1.9080 N   0  0  0  0  0  0  0  0  0  0  0  0
    9.5140   13.2570    2.2090 C   0  0  0  0  0  0  0  0  0  0  0  0
    8.7100   13.9350    1.2250 C   0  0  0  0  0  0  0  0  0  0  0  0
    9.3170   14.7090    0.2330 C   0  0  0  0  0  0  0  0  0  0  0  0
    8.5390   15.3630   -0.7220 C   0  0  0  0  0  0  0  0  0  0  0  0
    7.1490   15.2460   -0.6890 C   0  0  0  0  0  0  0  0  0  0  0  0
    6.5390   14.4740    0.3000 C   0  0  0  0  0  0  0  0  0  0  0  0
    7.3170   13.8190    1.2550 C   0  0  0  0  0  0  0  0  0  0  0  0
    8.8690   12.8350    3.3210 N   0  0  0  0  0  0  0  0  0  0  0  0
    9.6770   12.2160    4.1900 C   0  0  0  0  0  0  0  0  0  0  0  0
    4.2767   13.6359    6.7946 H   0  0  0  0  0  0  0  0  0  0  0  0
    4.0978   14.6384    5.3149 H   0  0  0  0  0  0  0  0  0  0  0  0
    3.5425   12.9301    5.3149 H   0  0  0  0  0  0  0  0  0  0  0  0
    5.7391   12.0868    5.3071 H   0  0  0  0  0  0  0  0  0  0  0  0
    5.8048   13.5082    4.1858 H   0  0  0  0  0  0  0  0  0  0  0  0
    5.6166   15.5339    6.2751 H   0  0  0  0  0  0  0  0  0  0  0  0
    7.2576   15.5197    7.0500 H   0  0  0  0  0  0  0  0  0  0  0  0
    5.3161   16.4585    4.1651 H   0  0  0  0  0  0  0  0  0  0  0  0
    6.2834   17.6228    2.1794 H   0  0  0  0  0  0  0  0  0  0  0  0
    8.7589   17.7399    1.8860 H   0  0  0  0  0  0  0  0  0  0  0  0
   10.2653   16.6967    3.5804 H   0  0  0  0  0  0  0  0  0  0  0  0
    9.2936   15.5303    5.5641 H   0  0  0  0  0  0  0  0  0  0  0  0
    7.9346   10.8778    6.7503 H   0  0  0  0  0  0  0  0  0  0  0  0
    7.2924   11.4945    5.1856 H   0  0  0  0  0  0  0  0  0  0  0  0
   13.1858   10.8930    6.3202 H   0  0  0  0  0  0  0  0  0  0  0  0
   13.1103    9.9817    4.7741 H   0  0  0  0  0  0  0  0  0  0  0  0
   13.5922   11.7121    4.7741 H   0  0  0  0  0  0  0  0  0  0  0  0
   12.6632   12.3406    2.6503 H   0  0  0  0  0  0  0  0  0  0  0  0
   10.4126   14.8030    0.2050 H   0  0  0  0  0  0  0  0  0  0  0  0
    9.0213   15.9712   -1.5014 H   0  0  0  0  0  0  0  0  0  0  0  0
    6.5349   15.7618   -1.4419 H   0  0  0  0  0  0  0  0  0  0  0  0
    5.4432   14.3816    0.3269 H   0  0  0  0  0  0  0  0  0  0  0  0
    6.8335   13.2101    2.0331 H   0  0  0  0  0  0  0  0  0  0  0  0
  1  2  1  0
  2  3  1  0
  3  4  1  0
  4  5  1  0
  5  6  2  0
  6  7  1  0
  7  8  2  0
  8  9  1  0
  9 10  2  0
  3 11  1  0
 11 12  2  0
 11 13  1  0
 13 14  1  0
 14 15  1  0
 15 16  2  0
 15 17  1  0
 17 18  1  0
 17 19  1  0
 19 20  2  0
 20 21  1  0
 21 22  2  0
 22 23  1  0
 23 24  2  0
 24 25  1  0
 25 26  2  0
 26 27  1  0
 27 28  2  0
 22 29  1  0
 29 30  2  0
 10  5  1  0
 30 14  1  0
 30 19  1  0
 28 23  1  0
  1 31  1  0
  1 32  1  0
  1 33  1  0
  2 34  1  0
  2 35  1  0
  4 36  1  0
  4 37  1  0
  6 38  1  0
  7 39  1  0
  8 40  1  0
  9 41  1  0
 10 42  1  0
 13 43  1  0
 13 44  1  0
 18 45  1  0
 18 46  1  0
 18 47  1  0
 20 48  1  0
 24 49  1  0
 25 50  1  0
 26 51  1  0
 27 52  1  0
 28 53  1  0
M  END
>  <meeko>  (10) 
{"is_sidechain": [false], "free_energy": -5.643, "intermolecular_energy": -6.355, "internal_energy": -3.024}

$$$$
