AC-5216_fine14_out
 OpenBabel07262601143D

 53 56  0  0  0  0  0  0  0  0999 V2000
    1.0580   18.7880    4.0490 C   0  0  0  0  0  0  0  0  0  0  0  0
    1.5820   17.7720    5.0430 C   0  0  0  0  0  0  0  0  0  0  0  0
    0.5040   17.2030    5.8430 N   0  0  0  0  0  0  0  0  0  0  0  0
   -0.1810   16.0600    5.2420 C   0  0  0  0  0  0  0  0  0  0  0  0
    0.3690   14.7540    5.7350 C   0  0  0  0  0  0  0  0  0  0  0  0
    1.3700   14.1130    5.0130 C   0  0  0  0  0  0  0  0  0  0  0  0
    1.8820   12.8990    5.4700 C   0  0  0  0  0  0  0  0  0  0  0  0
    1.3890   12.3320    6.6460 C   0  0  0  0  0  0  0  0  0  0  0  0
    0.3850   12.9810    7.3650 C   0  0  0  0  0  0  0  0  0  0  0  0
   -0.1270   14.1960    6.9080 C   0  0  0  0  0  0  0  0  0  0  0  0
    0.1510   17.7120    7.0980 C   0  0  0  0  0  0  0  0  0  0  0  0
   -1.0160   17.8920    7.4540 O   0  0  0  0  0  0  0  0  0  0  0  0
    1.3070   18.0410    8.0270 C   0  0  0  0  0  0  0  0  0  0  0  0
    1.6010   16.9100    8.8670 N   0  0  0  0  0  0  0  0  0  0  0  0
    0.9900   16.5800   10.1110 C   0  0  0  0  0  0  0  0  0  0  0  0
    0.1050   17.1960   10.6890 O   0  0  0  0  0  0  0  0  0  0  0  0
    1.6290   15.3810   10.5360 N   0  0  0  0  0  0  0  0  0  0  0  0
    1.3410   14.6620   11.7510 C   0  0  0  0  0  0  0  0  0  0  0  0
    2.5810   15.0180    9.5810 C   0  0  0  0  0  0  0  0  0  0  0  0
    3.4550   13.9700    9.5010 C   0  0  0  0  0  0  0  0  0  0  0  0
    4.2900   13.8460    8.4460 N   0  0  0  0  0  0  0  0  0  0  0  0
    4.1980   14.8150    7.4960 C   0  0  0  0  0  0  0  0  0  0  0  0
    5.0880   14.6830    6.3720 C   0  0  0  0  0  0  0  0  0  0  0  0
    5.5950   15.8220    5.7390 C   0  0  0  0  0  0  0  0  0  0  0  0
    6.4600   15.6950    4.6520 C   0  0  0  0  0  0  0  0  0  0  0  0
    6.8220   14.4280    4.1930 C   0  0  0  0  0  0  0  0  0  0  0  0
    6.3180   13.2900    4.8210 C   0  0  0  0  0  0  0  0  0  0  0  0
    5.4540   13.4160    5.9090 C   0  0  0  0  0  0  0  0  0  0  0  0
    3.3710   15.8860    7.4810 N   0  0  0  0  0  0  0  0  0  0  0  0
    2.5740   15.9440    8.5550 C   0  0  0  0  0  0  0  0  0  0  0  0
    0.6192   19.6387    4.5910 H   0  0  0  0  0  0  0  0  0  0  0  0
    1.8854   19.1432    3.4171 H   0  0  0  0  0  0  0  0  0  0  0  0
    0.2889   18.3198    3.4171 H   0  0  0  0  0  0  0  0  0  0  0  0
    2.0861   16.9625    4.4948 H   0  0  0  0  0  0  0  0  0  0  0  0
    2.2831   18.2814    5.7205 H   0  0  0  0  0  0  0  0  0  0  0  0
   -1.2502   16.1134    5.4947 H   0  0  0  0  0  0  0  0  0  0  0  0
   -0.0274   16.1049    4.1537 H   0  0  0  0  0  0  0  0  0  0  0  0
    1.7561   14.5615    4.0858 H   0  0  0  0  0  0  0  0  0  0  0  0
    2.6746   12.3883    4.9034 H   0  0  0  0  0  0  0  0  0  0  0  0
    1.7919   11.3738    7.0059 H   0  0  0  0  0  0  0  0  0  0  0  0
   -0.0032   12.5348    8.2925 H   0  0  0  0  0  0  0  0  0  0  0  0
   -0.9189   14.7097    7.4728 H   0  0  0  0  0  0  0  0  0  0  0  0
    2.1955   18.2909    7.4285 H   0  0  0  0  0  0  0  0  0  0  0  0
    1.0297   18.8976    8.6590 H   0  0  0  0  0  0  0  0  0  0  0  0
    1.5929   15.2908   12.6177 H   0  0  0  0  0  0  0  0  0  0  0  0
    0.2714   14.4071   11.7814 H   0  0  0  0  0  0  0  0  0  0  0  0
    1.9389   13.7392   11.7814 H   0  0  0  0  0  0  0  0  0  0  0  0
    3.4788   13.2192   10.3046 H   0  0  0  0  0  0  0  0  0  0  0  0
    5.3108   16.8217    6.0994 H   0  0  0  0  0  0  0  0  0  0  0  0
    6.8567   16.5935    4.1568 H   0  0  0  0  0  0  0  0  0  0  0  0
    7.5045   14.3272    3.3363 H   0  0  0  0  0  0  0  0  0  0  0  0
    6.6020   12.2912    4.4581 H   0  0  0  0  0  0  0  0  0  0  0  0
    5.0598   12.5161    6.4037 H   0  0  0  0  0  0  0  0  0  0  0  0
  1  2  1  0  0  0  0
  1 31  1  0  0  0  0
  1 32  1  0  0  0  0
  1 33  1  0  0  0  0
  2  3  1  0  0  0  0
  2 34  1  0  0  0  0
  2 35  1  0  0  0  0
  3  4  1  0  0  0  0
  3 11  1  0  0  0  0
  4  5  1  0  0  0  0
  4 36  1  0  0  0  0
  4 37  1  0  0  0  0
  5  6  2  0  0  0  0
  6  7  1  0  0  0  0
  6 38  1  0  0  0  0
  7  8  2  0  0  0  0
  7 39  1  0  0  0  0
  8  9  1  0  0  0  0
  8 40  1  0  0  0  0
  9 10  2  0  0  0  0
  9 41  1  0  0  0  0
 10  5  1  0  0  0  0
 10 42  1  0  0  0  0
 11 12  2  0  0  0  0
 11 13  1  0  0  0  0
 13 14  1  0  0  0  0
 13 43  1  0  0  0  0
 13 44  1  0  0  0  0
 14 15  1  0  0  0  0
 15 16  2  0  0  0  0
 15 17  1  0  0  0  0
 17 18  1  0  0  0  0
 17 19  1  0  0  0  0
 18 45  1  0  0  0  0
 18 46  1  0  0  0  0
 18 47  1  0  0  0  0
 19 20  2  0  0  0  0
 20 21  1  0  0  0  0
 20 48  1  0  0  0  0
 21 22  2  0  0  0  0
 22 23  1  0  0  0  0
 22 29  1  0  0  0  0
 23 24  2  0  0  0  0
 24 25  1  0  0  0  0
 24 49  1  0  0  0  0
 25 26  2  0  0  0  0
 25 50  1  0  0  0  0
 26 27  1  0  0  0  0
 26 51  1  0  0  0  0
 27 28  2  0  0  0  0
 27 52  1  0  0  0  0
 28 23  1  0  0  0  0
 28 53  1  0  0  0  0
 29 30  2  0  0  0  0
 30 14  1  0  0  0  0
 30 19  1  0  0  0  0
M  END
>  <meeko>
{"is_sidechain": [false], "free_energy": -5.295, "intermolecular_energy": -7.462, "internal_energy": -2.645}

$$$$
