6433109
 OpenBabel07042618093D

 30 33  0  0  0  0  0  0  0  0999 V2000
   10.5320   12.1870    3.7760 O   0  0  0  0  0  0  0  0  0  0  0  0
    8.2520   12.8470    3.7310 N   0  0  0  0  0  0  0  0  0  0  0  0
    9.2310   12.4840    5.7400 N   0  0  0  0  0  0  0  0  0  0  0  0
    6.0160   13.4570    4.5850 N   0  0  0  0  0  0  0  0  0  0  0  0
    5.8650   13.4030    7.0160 N   0  0  0  0  0  0  0  0  0  0  0  0
    7.2920   13.0840    4.7310 C   0  0  0  0  0  0  0  0  0  0  0  0
    7.9020   12.8590    5.9510 C   0  0  0  0  0  0  0  0  0  0  0  0
    9.4830   12.4670    4.3390 C   0  0  0  0  0  0  0  0  0  0  0  0
   10.1880   12.1680    6.7690 C   0  0  0  0  0  1  0  0  0  0  0  0
    7.1600   13.0270    7.0870 C   0  0  0  0  0  3  0  0  0  0  0  0
    5.3680   13.5970    5.7650 C   0  0  0  0  0  0  0  0  0  0  0  0
    3.9860   13.9970    5.6890 C   0  0  0  0  0  0  0  0  0  0  0  0
    2.9940   13.0510    5.4150 C   0  0  0  0  0  3  0  0  0  0  0  0
    3.6290   15.3330    5.8920 C   0  0  0  0  0  3  0  0  0  0  0  0
    1.6560   13.4370    5.3440 C   0  0  0  0  0  3  0  0  0  0  0  0
    2.2900   15.7180    5.8200 C   0  0  0  0  0  3  0  0  0  0  0  0
    1.3030   14.7720    5.5470 C   0  0  0  0  0  3  0  0  0  0  0  0
    7.9810   12.9800    2.3240 C   0  0  0  0  0  2  0  0  0  0  0  0
    9.1710   15.0560    2.4620 O   0  0  0  0  0  0  0  0  0  0  0  0
    7.6570   14.8340    0.7180 N   0  0  0  0  0  0  0  0  0  0  0  0
    8.3350   14.3810    1.8560 C   0  0  0  0  0  0  0  0  0  0  0  0
    6.6720   14.0160    0.0200 C   0  0  0  0  0  2  0  0  0  0  0  0
    6.9810   13.9170   -1.4590 C   0  0  0  0  0  1  0  0  0  0  0  0
    7.8850   16.1590    0.1480 C   0  0  0  0  0  2  0  0  0  0  0  0
    6.7640   17.1060    0.4630 C   0  0  0  0  0  0  0  0  0  0  0  0
    6.7020   17.7060    1.7160 C   0  0  0  0  0  3  0  0  0  0  0  0
    5.7970   17.3730   -0.4990 C   0  0  0  0  0  3  0  0  0  0  0  0
    5.6610   18.5860    2.0100 C   0  0  0  0  0  3  0  0  0  0  0  0
    4.7550   18.2540   -0.2040 C   0  0  0  0  0  3  0  0  0  0  0  0
    4.6870   18.8590    1.0500 C   0  0  0  0  0  3  0  0  0  0  0  0
  1  8  2  0  0  0  0
  2  8  1  0  0  0  0
  2  6  1  0  0  0  0
  3  7  1  0  0  0  0
  3  9  1  0  0  0  0
  4  6  1  0  0  0  0
  4 11  2  0  0  0  0
  5 10  2  0  0  0  0
  6  7  2  0  0  0  0
  7 10  1  0  0  0  0
  8  3  1  0  0  0  0
 11  5  1  0  0  0  0
 12 11  1  0  0  0  0
 12 14  1  0  0  0  0
 13 12  2  0  0  0  0
 15 13  1  0  0  0  0
 15 17  2  0  0  0  0
 16 14  2  0  0  0  0
 17 16  1  0  0  0  0
 18  2  1  0  0  0  0
 20 21  1  0  0  0  0
 21 18  1  0  0  0  0
 21 19  2  0  0  0  0
 22 20  1  0  0  0  0
 23 22  1  0  0  0  0
 24 25  1  0  0  0  0
 24 20  1  0  0  0  0
 25 26  1  0  0  0  0
 26 28  2  0  0  0  0
 27 29  1  0  0  0  0
 27 25  2  0  0  0  0
 29 30  2  0  0  0  0
 30 28  1  0  0  0  0
M  END
>  <MODEL>
1

>  <REMARK>
 VINA RESULT:    -6.100      0.000      0.000
 INTER + INTRA:          -9.553
 INTER:                  -8.240
 INTRA:                  -1.313
 UNBOUND:                -1.313
  Name = 6433109
  8 active torsions:
  status: ('A' for Active; 'I' for Inactive)
    1  A    between atoms: N_3  and  C_8
    2  A    between atoms: N_4  and  C_15
    3  A    between atoms: N_5  and  C_13
    4  A    between atoms: N_5  and  C_14
    5  A    between atoms: C_8  and  C_12
    6  A    between atoms: C_13  and  C_17
    7  A    between atoms: C_14  and  C_19
    8  A    between atoms: C_18  and  C_20
                            x       y       z     vdW  Elec       q    Type
                         _______ _______ _______ _____ _____    ______ ____

>  <TORSDO>
F 6

$$$$
