A8_fine14_out
     RDKit          3D

 53 56  0  0  0  0  0  0  0  0999 V2000
    1.9270   19.2120    4.0660 C   0  0  0  0  0  0  0  0  0  0  0  0
    1.8770   17.9650    4.9360 C   0  0  0  0  0  0  0  0  0  0  0  0
    0.6710   17.9160    5.7720 N   0  0  0  0  0  0  0  0  0  0  0  0
   -0.3660   16.9310    5.4490 C   0  0  0  0  0  0  0  0  0  0  0  0
   -0.1210   15.5530    6.0190 C   0  0  0  0  0  0  0  0  0  0  0  0
    0.7870   14.6950    5.3710 C   0  0  0  0  0  0  0  0  0  0  0  0
    1.0340   13.4140    5.8660 C   0  0  0  0  0  0  0  0  0  0  0  0
    2.1430   12.3830    5.0510 Cl  0  0  0  0  0  0  0  0  0  0  0  0
    0.3880   12.9650    7.0140 C   0  0  0  0  0  0  0  0  0  0  0  0
   -0.5120   13.8050    7.6710 C   0  0  0  0  0  0  0  0  0  0  0  0
   -0.7670   15.0910    7.1790 C   0  0  0  0  0  0  0  0  0  0  0  0
   -1.8980   16.0650    8.0480 Cl  0  0  0  0  0  0  0  0  0  0  0  0
    0.6380   18.4450    7.0710 C   0  0  0  0  0  0  0  0  0  0  0  0
   -0.3530   19.0420    7.5000 O   0  0  0  0  0  0  0  0  0  0  0  0
    1.8960   18.2490    7.9330 C   0  0  0  0  0  0  0  0  0  0  0  0
    1.8840   16.9770    8.6020 N   0  0  0  0  0  0  0  0  0  0  0  0
    1.2430   16.6970    9.8190 C   0  0  0  0  0  0  0  0  0  0  0  0
    0.4720   17.4240   10.4230 O   0  0  0  0  0  0  0  0  0  0  0  0
    1.6680   15.4050   10.1990 N   0  0  0  0  0  0  0  0  0  0  0  0
    1.3230   14.7240   11.4120 C   0  0  0  0  0  0  0  0  0  0  0  0
    2.6010   14.9650    9.2580 C   0  0  0  0  0  0  0  0  0  0  0  0
    3.3620   13.8470    9.1390 C   0  0  0  0  0  0  0  0  0  0  0  0
    4.2140   13.6990    8.1000 N   0  0  0  0  0  0  0  0  0  0  0  0
    4.2910   14.7120    7.1880 C   0  0  0  0  0  0  0  0  0  0  0  0
    5.2420   14.5520    6.0660 C   0  0  0  0  0  0  0  0  0  0  0  0
    5.8020   15.6660    5.4100 C   0  0  0  0  0  0  0  0  0  0  0  0
    6.7000   15.5140    4.3480 C   0  0  0  0  0  0  0  0  0  0  0  0
    7.0580   14.2420    3.9140 C   0  0  0  0  0  0  0  0  0  0  0  0
    6.5200   13.1220    4.5410 C   0  0  0  0  0  0  0  0  0  0  0  0
    5.6250   13.2790    5.6040 C   0  0  0  0  0  0  0  0  0  0  0  0
    3.5620   15.8490    7.2300 N   0  0  0  0  0  0  0  0  0  0  0  0
    2.7450   15.9240    8.2800 C   0  0  0  0  0  0  0  0  0  0  0  0
    1.9628   20.1052    4.7071 H   0  0  0  0  0  0  0  0  0  0  0  0
    2.8246   19.1803    3.4309 H   0  0  0  0  0  0  0  0  0  0  0  0
    1.0297   19.2522    3.4309 H   0  0  0  0  0  0  0  0  0  0  0  0
    1.8921   17.0786    4.2847 H   0  0  0  0  0  0  0  0  0  0  0  0
    2.7495   17.9869    5.6055 H   0  0  0  0  0  0  0  0  0  0  0  0
   -1.3247   17.3000    5.8423 H   0  0  0  0  0  0  0  0  0  0  0  0
   -0.3635   16.8217    4.3544 H   0  0  0  0  0  0  0  0  0  0  0  0
    1.3075   15.0379    4.4646 H   0  0  0  0  0  0  0  0  0  0  0  0
    0.5856   11.9545    7.4010 H   0  0  0  0  0  0  0  0  0  0  0  0
   -1.0236   13.4553    8.5798 H   0  0  0  0  0  0  0  0  0  0  0  0
    2.7843   18.3043    7.2866 H   0  0  0  0  0  0  0  0  0  0  0  0
    1.9173   19.0402    8.6969 H   0  0  0  0  0  0  0  0  0  0  0  0
    1.6314   15.3328   12.2747 H   0  0  0  0  0  0  0  0  0  0  0  0
    0.2352   14.5642   11.4461 H   0  0  0  0  0  0  0  0  0  0  0  0
    1.8376   13.7524   11.4461 H   0  0  0  0  0  0  0  0  0  0  0  0
    3.2844   13.0530    9.8963 H   0  0  0  0  0  0  0  0  0  0  0  0
    5.5269   16.6785    5.7404 H   0  0  0  0  0  0  0  0  0  0  0  0
    7.1235   16.4018    3.8555 H   0  0  0  0  0  0  0  0  0  0  0  0
    7.7635   14.1217    3.0786 H   0  0  0  0  0  0  0  0  0  0  0  0
    6.7986   12.1138    4.2006 H   0  0  0  0  0  0  0  0  0  0  0  0
    5.2097   12.3846    6.0915 H   0  0  0  0  0  0  0  0  0  0  0  0
  1  2  1  0
  2  3  1  0
  3  4  1  0
  4  5  1  0
  5  6  2  0
  6  7  1  0
  7  8  1  0
  7  9  2  0
  9 10  1  0
 10 11  2  0
 11 12  1  0
  3 13  1  0
 13 14  2  0
 13 15  1  0
 15 16  1  0
 16 17  1  0
 17 18  2  0
 17 19  1  0
 19 20  1  0
 19 21  1  0
 21 22  2  0
 22 23  1  0
 23 24  2  0
 24 25  1  0
 25 26  2  0
 26 27  1  0
 27 28  2  0
 28 29  1  0
 29 30  2  0
 24 31  1  0
 31 32  2  0
 11  5  1  0
 32 16  1  0
 32 21  1  0
 30 25  1  0
  1 33  1  0
  1 34  1  0
  1 35  1  0
  2 36  1  0
  2 37  1  0
  4 38  1  0
  4 39  1  0
  6 40  1  0
  9 41  1  0
 10 42  1  0
 15 43  1  0
 15 44  1  0
 20 45  1  0
 20 46  1  0
 20 47  1  0
 22 48  1  0
 26 49  1  0
 27 50  1  0
 28 51  1  0
 29 52  1  0
 30 53  1  0
M  END
>  <meeko>  (1) 
{"is_sidechain": [false], "free_energy": -5.386, "intermolecular_energy": -7.59, "internal_energy": -2.827}

$$$$
A8_fine14_out
     RDKit          3D

 53 56  0  0  0  0  0  0  0  0999 V2000
   11.1510   14.5210    1.3330 C   0  0  0  0  0  0  0  0  0  0  0  0
   10.4300   13.6250    2.3280 C   0  0  0  0  0  0  0  0  0  0  0  0
    9.1100   14.1530    2.7000 N   0  0  0  0  0  0  0  0  0  0  0  0
    8.9080   15.6050    2.6870 C   0  0  0  0  0  0  0  0  0  0  0  0
    8.3200   16.1680    3.9610 C   0  0  0  0  0  0  0  0  0  0  0  0
    6.9690   16.5620    3.9760 C   0  0  0  0  0  0  0  0  0  0  0  0
    6.3930   17.0900    5.1320 C   0  0  0  0  0  0  0  0  0  0  0  0
    4.7420   17.5710    5.1220 Cl  0  0  0  0  0  0  0  0  0  0  0  0
    7.1470   17.2300    6.2940 C   0  0  0  0  0  0  0  0  0  0  0  0
    8.4870   16.8400    6.2970 C   0  0  0  0  0  0  0  0  0  0  0  0
    9.0720   16.3120    5.1400 C   0  0  0  0  0  0  0  0  0  0  0  0
   10.7360   15.8570    5.2260 Cl  0  0  0  0  0  0  0  0  0  0  0  0
    7.9500   13.3660    2.6570 C   0  0  0  0  0  0  0  0  0  0  0  0
    7.0830   13.5420    1.7960 O   0  0  0  0  0  0  0  0  0  0  0  0
    7.8070   12.2790    3.7350 C   0  0  0  0  0  0  0  0  0  0  0  0
    7.8580   12.8390    5.0580 N   0  0  0  0  0  0  0  0  0  0  0  0
    8.9590   12.7880    5.9270 C   0  0  0  0  0  0  0  0  0  0  0  0
   10.0870   12.4100    5.6560 O   0  0  0  0  0  0  0  0  0  0  0  0
    8.4980   13.2640    7.1740 N   0  0  0  0  0  0  0  0  0  0  0  0
    9.2590   13.3320    8.3860 C   0  0  0  0  0  0  0  0  0  0  0  0
    7.1300   13.5200    7.0570 C   0  0  0  0  0  0  0  0  0  0  0  0
    6.1740   13.9380    7.9260 C   0  0  0  0  0  0  0  0  0  0  0  0
    4.8920   14.0830    7.5230 N   0  0  0  0  0  0  0  0  0  0  0  0
    4.5920   13.7850    6.2240 C   0  0  0  0  0  0  0  0  0  0  0  0
    3.1830   13.9260    5.7980 C   0  0  0  0  0  0  0  0  0  0  0  0
    2.4210   12.8110    5.3940 C   0  0  0  0  0  0  0  0  0  0  0  0
    1.0880   12.9450    4.9880 C   0  0  0  0  0  0  0  0  0  0  0  0
    0.4860   14.1990    4.9740 C   0  0  0  0  0  0  0  0  0  0  0  0
    1.2140   15.3190    5.3660 C   0  0  0  0  0  0  0  0  0  0  0  0
    2.5450   15.1800    5.7730 C   0  0  0  0  0  0  0  0  0  0  0  0
    5.4870   13.3750    5.2980 N   0  0  0  0  0  0  0  0  0  0  0  0
    6.7280   13.2550    5.7670 C   0  0  0  0  0  0  0  0  0  0  0  0
   11.7502   15.2657    1.8774 H   0  0  0  0  0  0  0  0  0  0  0  0
   11.8119   13.9096    0.7009 H   0  0  0  0  0  0  0  0  0  0  0  0
   10.4124   15.0358    0.7009 H   0  0  0  0  0  0  0  0  0  0  0  0
   10.2988   12.6301    1.8775 H   0  0  0  0  0  0  0  0  0  0  0  0
   11.0419   13.5755    3.2408 H   0  0  0  0  0  0  0  0  0  0  0  0
    9.8825   16.0859    2.5167 H   0  0  0  0  0  0  0  0  0  0  0  0
    8.1804   15.8123    1.8885 H   0  0  0  0  0  0  0  0  0  0  0  0
    6.3604   16.4525    3.0663 H   0  0  0  0  0  0  0  0  0  0  0  0
    6.6894   17.6454    7.2040 H   0  0  0  0  0  0  0  0  0  0  0  0
    9.0864   16.9480    7.2130 H   0  0  0  0  0  0  0  0  0  0  0  0
    6.8428   11.7669    3.6006 H   0  0  0  0  0  0  0  0  0  0  0  0
    8.6437   11.5732    3.6265 H   0  0  0  0  0  0  0  0  0  0  0  0
    8.5799   13.2713    9.2492 H   0  0  0  0  0  0  0  0  0  0  0  0
    9.9706   12.4939    8.4197 H   0  0  0  0  0  0  0  0  0  0  0  0
    9.8107   14.2830    8.4197 H   0  0  0  0  0  0  0  0  0  0  0  0
    6.4456   14.1608    8.9684 H   0  0  0  0  0  0  0  0  0  0  0  0
    2.8842   11.8133    5.3979 H   0  0  0  0  0  0  0  0  0  0  0  0
    0.5159   12.0576    4.6796 H   0  0  0  0  0  0  0  0  0  0  0  0
   -0.5612   14.3052    4.6544 H   0  0  0  0  0  0  0  0  0  0  0  0
    0.7427   16.3129    5.3557 H   0  0  0  0  0  0  0  0  0  0  0  0
    3.1073   16.0737    6.0814 H   0  0  0  0  0  0  0  0  0  0  0  0
  1  2  1  0
  2  3  1  0
  3  4  1  0
  4  5  1  0
  5  6  2  0
  6  7  1  0
  7  8  1  0
  7  9  2  0
  9 10  1  0
 10 11  2  0
 11 12  1  0
  3 13  1  0
 13 14  2  0
 13 15  1  0
 15 16  1  0
 16 17  1  0
 17 18  2  0
 17 19  1  0
 19 20  1  0
 19 21  1  0
 21 22  2  0
 22 23  1  0
 23 24  2  0
 24 25  1  0
 25 26  2  0
 26 27  1  0
 27 28  2  0
 28 29  1  0
 29 30  2  0
 24 31  1  0
 31 32  2  0
 11  5  1  0
 32 16  1  0
 32 21  1  0
 30 25  1  0
  1 33  1  0
  1 34  1  0
  1 35  1  0
  2 36  1  0
  2 37  1  0
  4 38  1  0
  4 39  1  0
  6 40  1  0
  9 41  1  0
 10 42  1  0
 15 43  1  0
 15 44  1  0
 20 45  1  0
 20 46  1  0
 20 47  1  0
 22 48  1  0
 26 49  1  0
 27 50  1  0
 28 51  1  0
 29 52  1  0
 30 53  1  0
M  END
>  <meeko>  (2) 
{"is_sidechain": [false], "free_energy": -5.232, "intermolecular_energy": -7.548, "internal_energy": -2.651}

$$$$
A8_fine14_out
     RDKit          3D

 53 56  0  0  0  0  0  0  0  0999 V2000
    2.5570   14.7700   13.0960 C   0  0  0  0  0  0  0  0  0  0  0  0
    2.5670   13.5940   12.1310 C   0  0  0  0  0  0  0  0  0  0  0  0
    3.4030   13.8490   10.9510 N   0  0  0  0  0  0  0  0  0  0  0  0
    3.2040   15.0980   10.2090 C   0  0  0  0  0  0  0  0  0  0  0  0
    1.8450   15.2330    9.5610 C   0  0  0  0  0  0  0  0  0  0  0  0
    1.2540   14.1020    8.9660 C   0  0  0  0  0  0  0  0  0  0  0  0
    0.0030   14.1910    8.3550 C   0  0  0  0  0  0  0  0  0  0  0  0
   -0.6930   12.7960    7.6290 Cl  0  0  0  0  0  0  0  0  0  0  0  0
   -0.6840   15.4010    8.3270 C   0  0  0  0  0  0  0  0  0  0  0  0
   -0.1130   16.5300    8.9150 C   0  0  0  0  0  0  0  0  0  0  0  0
    1.1430   16.4500    9.5290 C   0  0  0  0  0  0  0  0  0  0  0  0
    1.7790   17.8940   10.2300 Cl  0  0  0  0  0  0  0  0  0  0  0  0
    4.6250   13.1930   10.7420 C   0  0  0  0  0  0  0  0  0  0  0  0
    4.7500   11.9820   10.9440 O   0  0  0  0  0  0  0  0  0  0  0  0
    5.8010   14.0550   10.2550 C   0  0  0  0  0  0  0  0  0  0  0  0
    6.4230   13.4880    9.0900 N   0  0  0  0  0  0  0  0  0  0  0  0
    7.7670   13.0980    8.9860 C   0  0  0  0  0  0  0  0  0  0  0  0
    8.5800   13.0260    9.8940 O   0  0  0  0  0  0  0  0  0  0  0  0
    7.9880   12.8030    7.6230 N   0  0  0  0  0  0  0  0  0  0  0  0
    9.2360   12.4230    7.0310 C   0  0  0  0  0  0  0  0  0  0  0  0
    6.8110   13.0870    6.9260 C   0  0  0  0  0  0  0  0  0  0  0  0
    6.4600   13.0430    5.6160 C   0  0  0  0  0  0  0  0  0  0  0  0
    5.2180   13.4030    5.2210 N   0  0  0  0  0  0  0  0  0  0  0  0
    4.3400   13.8220    6.1790 C   0  0  0  0  0  0  0  0  0  0  0  0
    2.9910   14.2360    5.7370 C   0  0  0  0  0  0  0  0  0  0  0  0
    2.0510   13.2980    5.2640 C   0  0  0  0  0  0  0  0  0  0  0  0
    0.7750   13.6910    4.8430 C   0  0  0  0  0  0  0  0  0  0  0  0
    0.4090   15.0320    4.8830 C   0  0  0  0  0  0  0  0  0  0  0  0
    1.3170   15.9810    5.3440 C   0  0  0  0  0  0  0  0  0  0  0  0
    2.5890   15.5850    5.7660 C   0  0  0  0  0  0  0  0  0  0  0  0
    4.6090   13.8840    7.5020 N   0  0  0  0  0  0  0  0  0  0  0  0
    5.8500   13.5140    7.8150 C   0  0  0  0  0  0  0  0  0  0  0  0
    2.5602   14.3956   14.1303 H   0  0  0  0  0  0  0  0  0  0  0  0
    3.4499   15.3900   12.9277 H   0  0  0  0  0  0  0  0  0  0  0  0
    1.6537   15.3747   12.9277 H   0  0  0  0  0  0  0  0  0  0  0  0
    2.9561   12.7090   12.6557 H   0  0  0  0  0  0  0  0  0  0  0  0
    1.5353   13.4340   11.7845 H   0  0  0  0  0  0  0  0  0  0  0  0
    3.3363   15.9373   10.9076 H   0  0  0  0  0  0  0  0  0  0  0  0
    3.9410   15.0974    9.3924 H   0  0  0  0  0  0  0  0  0  0  0  0
    1.7841   13.1383    8.9831 H   0  0  0  0  0  0  0  0  0  0  0  0
   -1.6704   15.4668    7.8446 H   0  0  0  0  0  0  0  0  0  0  0  0
   -0.6525   17.4884    8.8962 H   0  0  0  0  0  0  0  0  0  0  0  0
    5.4290   15.0603   10.0080 H   0  0  0  0  0  0  0  0  0  0  0  0
    6.5509   14.1012   11.0585 H   0  0  0  0  0  0  0  0  0  0  0  0
    9.9654   12.2009    7.8239 H   0  0  0  0  0  0  0  0  0  0  0  0
    9.0888   11.5290    6.4073 H   0  0  0  0  0  0  0  0  0  0  0  0
    9.6120   13.2474    6.4073 H   0  0  0  0  0  0  0  0  0  0  0  0
    7.1940   12.7108    4.8671 H   0  0  0  0  0  0  0  0  0  0  0  0
    2.3262   12.2337    5.2248 H   0  0  0  0  0  0  0  0  0  0  0  0
    0.0605   12.9376    4.4799 H   0  0  0  0  0  0  0  0  0  0  0  0
   -0.5933   15.3413    4.5519 H   0  0  0  0  0  0  0  0  0  0  0  0
    1.0331   17.0433    5.3761 H   0  0  0  0  0  0  0  0  0  0  0  0
    3.2942   16.3467    6.1301 H   0  0  0  0  0  0  0  0  0  0  0  0
  1  2  1  0
  2  3  1  0
  3  4  1  0
  4  5  1  0
  5  6  2  0
  6  7  1  0
  7  8  1  0
  7  9  2  0
  9 10  1  0
 10 11  2  0
 11 12  1  0
  3 13  1  0
 13 14  2  0
 13 15  1  0
 15 16  1  0
 16 17  1  0
 17 18  2  0
 17 19  1  0
 19 20  1  0
 19 21  1  0
 21 22  2  0
 22 23  1  0
 23 24  2  0
 24 25  1  0
 25 26  2  0
 26 27  1  0
 27 28  2  0
 28 29  1  0
 29 30  2  0
 24 31  1  0
 31 32  2  0
 11  5  1  0
 32 16  1  0
 32 21  1  0
 30 25  1  0
  1 33  1  0
  1 34  1  0
  1 35  1  0
  2 36  1  0
  2 37  1  0
  4 38  1  0
  4 39  1  0
  6 40  1  0
  9 41  1  0
 10 42  1  0
 15 43  1  0
 15 44  1  0
 20 45  1  0
 20 46  1  0
 20 47  1  0
 22 48  1  0
 26 49  1  0
 27 50  1  0
 28 51  1  0
 29 52  1  0
 30 53  1  0
M  END
>  <meeko>  (3) 
{"is_sidechain": [false], "free_energy": -5.086, "intermolecular_energy": -7.382, "internal_energy": -2.612}

$$$$
A8_fine14_out
     RDKit          3D

 53 56  0  0  0  0  0  0  0  0999 V2000
    6.2080   16.0950    5.1330 C   0  0  0  0  0  0  0  0  0  0  0  0
    5.7530   16.1760    6.5830 C   0  0  0  0  0  0  0  0  0  0  0  0
    4.8820   15.0540    6.9580 N   0  0  0  0  0  0  0  0  0  0  0  0
    4.1720   14.3340    5.8970 C   0  0  0  0  0  0  0  0  0  0  0  0
    2.7620   14.8180    5.6460 C   0  0  0  0  0  0  0  0  0  0  0  0
    2.4740   16.1890    5.7840 C   0  0  0  0  0  0  0  0  0  0  0  0
    1.1820   16.6700    5.5660 C   0  0  0  0  0  0  0  0  0  0  0  0
    0.8540   18.3490    5.7490 Cl  0  0  0  0  0  0  0  0  0  0  0  0
    0.1580   15.8010    5.2020 C   0  0  0  0  0  0  0  0  0  0  0  0
    0.4280   14.4400    5.0570 C   0  0  0  0  0  0  0  0  0  0  0  0
    1.7210   13.9490    5.2770 C   0  0  0  0  0  0  0  0  0  0  0  0
    1.9710   12.2510    5.0800 Cl  0  0  0  0  0  0  0  0  0  0  0  0
    5.0130   14.3810    8.1820 C   0  0  0  0  0  0  0  0  0  0  0  0
    4.0420   13.8640    8.7410 O   0  0  0  0  0  0  0  0  0  0  0  0
    6.4220   14.3220    8.7940 C   0  0  0  0  0  0  0  0  0  0  0  0
    6.9460   12.9830    8.7840 N   0  0  0  0  0  0  0  0  0  0  0  0
    7.1750   12.1840    9.9140 C   0  0  0  0  0  0  0  0  0  0  0  0
    6.8280   12.4220   11.0600 O   0  0  0  0  0  0  0  0  0  0  0  0
    7.8820   11.0510    9.4590 N   0  0  0  0  0  0  0  0  0  0  0  0
    8.3910    9.9870   10.2730 C   0  0  0  0  0  0  0  0  0  0  0  0
    8.1300   11.2180    8.0940 C   0  0  0  0  0  0  0  0  0  0  0  0
    8.7960   10.4900    7.1630 C   0  0  0  0  0  0  0  0  0  0  0  0
    8.8890   10.9220    5.8850 N   0  0  0  0  0  0  0  0  0  0  0  0
    8.3030   12.1160    5.5710 C   0  0  0  0  0  0  0  0  0  0  0  0
    8.4280   12.5920    4.1760 C   0  0  0  0  0  0  0  0  0  0  0  0
    7.3240   13.1130    3.4730 C   0  0  0  0  0  0  0  0  0  0  0  0
    7.4420   13.5620    2.1530 C   0  0  0  0  0  0  0  0  0  0  0  0
    8.6690   13.4990    1.5020 C   0  0  0  0  0  0  0  0  0  0  0  0
    9.7790   12.9870    2.1700 C   0  0  0  0  0  0  0  0  0  0  0  0
    9.6570   12.5420    3.4900 C   0  0  0  0  0  0  0  0  0  0  0  0
    7.6160   12.8920    6.4360 N   0  0  0  0  0  0  0  0  0  0  0  0
    7.5660   12.4020    7.6740 C   0  0  0  0  0  0  0  0  0  0  0  0
    7.2904   15.9023    5.0986 H   0  0  0  0  0  0  0  0  0  0  0  0
    5.6738   15.2778    4.6262 H   0  0  0  0  0  0  0  0  0  0  0  0
    5.9886   17.0463    4.6262 H   0  0  0  0  0  0  0  0  0  0  0  0
    6.6403   16.1675    7.2331 H   0  0  0  0  0  0  0  0  0  0  0  0
    5.1757   17.1046    6.7029 H   0  0  0  0  0  0  0  0  0  0  0  0
    4.7444   14.4447    4.9642 H   0  0  0  0  0  0  0  0  0  0  0  0
    4.0894   13.2887    6.2295 H   0  0  0  0  0  0  0  0  0  0  0  0
    3.2750   16.8881    6.0664 H   0  0  0  0  0  0  0  0  0  0  0  0
   -0.8583   16.1849    5.0296 H   0  0  0  0  0  0  0  0  0  0  0  0
   -0.3782   13.7495    4.7686 H   0  0  0  0  0  0  0  0  0  0  0  0
    7.0918   14.9722    8.2121 H   0  0  0  0  0  0  0  0  0  0  0  0
    6.3585   14.6596    9.8390 H   0  0  0  0  0  0  0  0  0  0  0  0
    8.2670   10.2462   11.3348 H   0  0  0  0  0  0  0  0  0  0  0  0
    7.8381    9.0615   10.0545 H   0  0  0  0  0  0  0  0  0  0  0  0
    9.4585    9.8367   10.0545 H   0  0  0  0  0  0  0  0  0  0  0  0
    9.2655    9.5378    7.4509 H   0  0  0  0  0  0  0  0  0  0  0  0
    6.3461   13.1682    3.9736 H   0  0  0  0  0  0  0  0  0  0  0  0
    6.5627   13.9654    1.6295 H   0  0  0  0  0  0  0  0  0  0  0  0
    8.7627   13.8518    0.4643 H   0  0  0  0  0  0  0  0  0  0  0  0
   10.7516   12.9328    1.6590 H   0  0  0  0  0  0  0  0  0  0  0  0
   10.5430   12.1429    4.0055 H   0  0  0  0  0  0  0  0  0  0  0  0
  1  2  1  0
  2  3  1  0
  3  4  1  0
  4  5  1  0
  5  6  2  0
  6  7  1  0
  7  8  1  0
  7  9  2  0
  9 10  1  0
 10 11  2  0
 11 12  1  0
  3 13  1  0
 13 14  2  0
 13 15  1  0
 15 16  1  0
 16 17  1  0
 17 18  2  0
 17 19  1  0
 19 20  1  0
 19 21  1  0
 21 22  2  0
 22 23  1  0
 23 24  2  0
 24 25  1  0
 25 26  2  0
 26 27  1  0
 27 28  2  0
 28 29  1  0
 29 30  2  0
 24 31  1  0
 31 32  2  0
 11  5  1  0
 32 16  1  0
 32 21  1  0
 30 25  1  0
  1 33  1  0
  1 34  1  0
  1 35  1  0
  2 36  1  0
  2 37  1  0
  4 38  1  0
  4 39  1  0
  6 40  1  0
  9 41  1  0
 10 42  1  0
 15 43  1  0
 15 44  1  0
 20 45  1  0
 20 46  1  0
 20 47  1  0
 22 48  1  0
 26 49  1  0
 27 50  1  0
 28 51  1  0
 29 52  1  0
 30 53  1  0
M  END
>  <meeko>  (4) 
{"is_sidechain": [false], "free_energy": -5.02, "intermolecular_energy": -8.362, "internal_energy": -1.538}

$$$$
A8_fine14_out
     RDKit          3D

 53 56  0  0  0  0  0  0  0  0999 V2000
    3.8620   11.3690   11.2290 C   0  0  0  0  0  0  0  0  0  0  0  0
    3.3250   12.6410   10.5900 C   0  0  0  0  0  0  0  0  0  0  0  0
    3.9290   13.8510   11.1620 N   0  0  0  0  0  0  0  0  0  0  0  0
    4.9840   14.5320   10.4050 C   0  0  0  0  0  0  0  0  0  0  0  0
    4.6110   14.8770    8.9810 C   0  0  0  0  0  0  0  0  0  0  0  0
    4.9590   13.9880    7.9480 C   0  0  0  0  0  0  0  0  0  0  0  0
    4.6350   14.2760    6.6210 C   0  0  0  0  0  0  0  0  0  0  0  0
    5.0790   13.1760    5.3750 Cl  0  0  0  0  0  0  0  0  0  0  0  0
    3.9560   15.4470    6.3000 C   0  0  0  0  0  0  0  0  0  0  0  0
    3.6010   16.3370    7.3140 C   0  0  0  0  0  0  0  0  0  0  0  0
    3.9240   16.0570    8.6470 C   0  0  0  0  0  0  0  0  0  0  0  0
    3.4500   17.2120    9.8400 Cl  0  0  0  0  0  0  0  0  0  0  0  0
    3.2900   14.6110   12.1540 C   0  0  0  0  0  0  0  0  0  0  0  0
    3.8570   15.5570   12.7070 O   0  0  0  0  0  0  0  0  0  0  0  0
    1.8520   14.2070   12.5190 C   0  0  0  0  0  0  0  0  0  0  0  0
    0.9060   15.2170   12.1300 N   0  0  0  0  0  0  0  0  0  0  0  0
    0.1480   16.0100   13.0060 C   0  0  0  0  0  0  0  0  0  0  0  0
    0.2760   16.0880   14.2170 O   0  0  0  0  0  0  0  0  0  0  0  0
   -0.7870   16.6990   12.2030 N   0  0  0  0  0  0  0  0  0  0  0  0
   -1.8160   17.5790   12.6710 C   0  0  0  0  0  0  0  0  0  0  0  0
   -0.6290   16.2600   10.8870 C   0  0  0  0  0  0  0  0  0  0  0  0
   -1.2710   16.5310    9.7220 C   0  0  0  0  0  0  0  0  0  0  0  0
   -0.9000   15.9250    8.5720 N   0  0  0  0  0  0  0  0  0  0  0  0
    0.1270   15.0260    8.6260 C   0  0  0  0  0  0  0  0  0  0  0  0
    0.5120   14.3500    7.3680 C   0  0  0  0  0  0  0  0  0  0  0  0
    1.0840   13.0630    7.3680 C   0  0  0  0  0  0  0  0  0  0  0  0
    1.4500   12.4250    6.1780 C   0  0  0  0  0  0  0  0  0  0  0  0
    1.2540   13.0610    4.9570 C   0  0  0  0  0  0  0  0  0  0  0  0
    0.6930   14.3340    4.9250 C   0  0  0  0  0  0  0  0  0  0  0  0
    0.3260   14.9670    6.1160 C   0  0  0  0  0  0  0  0  0  0  0  0
    0.8210   14.7100    9.7420 N   0  0  0  0  0  0  0  0  0  0  0  0
    0.4000   15.3470   10.8340 C   0  0  0  0  0  0  0  0  0  0  0  0
    3.8220   11.4637   12.3242 H   0  0  0  0  0  0  0  0  0  0  0  0
    3.2487   10.5125   10.9124 H   0  0  0  0  0  0  0  0  0  0  0  0
    4.9036   11.2111   10.9124 H   0  0  0  0  0  0  0  0  0  0  0  0
    3.5414   12.6136    9.5118 H   0  0  0  0  0  0  0  0  0  0  0  0
    2.2427   12.6826   10.7821 H   0  0  0  0  0  0  0  0  0  0  0  0
    5.2357   15.4653   10.9300 H   0  0  0  0  0  0  0  0  0  0  0  0
    5.8291   13.8304   10.3458 H   0  0  0  0  0  0  0  0  0  0  0  0
    5.4920   13.0562    8.1883 H   0  0  0  0  0  0  0  0  0  0  0  0
    3.7007   15.6697    5.2535 H   0  0  0  0  0  0  0  0  0  0  0  0
    3.0642   17.2641    7.0646 H   0  0  0  0  0  0  0  0  0  0  0  0
    1.6033   13.2672   12.0044 H   0  0  0  0  0  0  0  0  0  0  0  0
    1.7950   14.0829   13.6105 H   0  0  0  0  0  0  0  0  0  0  0  0
   -1.8219   17.5840   13.7710 H   0  0  0  0  0  0  0  0  0  0  0  0
   -1.6244   18.5969   12.3007 H   0  0  0  0  0  0  0  0  0  0  0  0
   -2.7919   17.2318   12.3007 H   0  0  0  0  0  0  0  0  0  0  0  0
   -2.1021   17.2515    9.7137 H   0  0  0  0  0  0  0  0  0  0  0  0
    1.2468   12.5475    8.3260 H   0  0  0  0  0  0  0  0  0  0  0  0
    1.8935   11.4188    6.2082 H   0  0  0  0  0  0  0  0  0  0  0  0
    1.5411   12.5601    4.0207 H   0  0  0  0  0  0  0  0  0  0  0  0
    0.5382   14.8425    3.9619 H   0  0  0  0  0  0  0  0  0  0  0  0
   -0.1191   15.9720    6.0742 H   0  0  0  0  0  0  0  0  0  0  0  0
  1  2  1  0
  2  3  1  0
  3  4  1  0
  4  5  1  0
  5  6  2  0
  6  7  1  0
  7  8  1  0
  7  9  2  0
  9 10  1  0
 10 11  2  0
 11 12  1  0
  3 13  1  0
 13 14  2  0
 13 15  1  0
 15 16  1  0
 16 17  1  0
 17 18  2  0
 17 19  1  0
 19 20  1  0
 19 21  1  0
 21 22  2  0
 22 23  1  0
 23 24  2  0
 24 25  1  0
 25 26  2  0
 26 27  1  0
 27 28  2  0
 28 29  1  0
 29 30  2  0
 24 31  1  0
 31 32  2  0
 11  5  1  0
 32 16  1  0
 32 21  1  0
 30 25  1  0
  1 33  1  0
  1 34  1  0
  1 35  1  0
  2 36  1  0
  2 37  1  0
  4 38  1  0
  4 39  1  0
  6 40  1  0
  9 41  1  0
 10 42  1  0
 15 43  1  0
 15 44  1  0
 20 45  1  0
 20 46  1  0
 20 47  1  0
 22 48  1  0
 26 49  1  0
 27 50  1  0
 28 51  1  0
 29 52  1  0
 30 53  1  0
M  END
>  <meeko>  (5) 
{"is_sidechain": [false], "free_energy": -4.926, "intermolecular_energy": -6.788, "internal_energy": -2.981}

$$$$
A8_fine14_out
     RDKit          3D

 53 56  0  0  0  0  0  0  0  0999 V2000
   10.6160   12.4250    2.1110 C   0  0  0  0  0  0  0  0  0  0  0  0
   10.8840   13.0010    3.4930 C   0  0  0  0  0  0  0  0  0  0  0  0
    9.7490   12.8150    4.4060 N   0  0  0  0  0  0  0  0  0  0  0  0
   10.0220   12.6400    5.8360 C   0  0  0  0  0  0  0  0  0  0  0  0
    9.6520   11.2800    6.3830 C   0  0  0  0  0  0  0  0  0  0  0  0
   10.5010   10.1860    6.1310 C   0  0  0  0  0  0  0  0  0  0  0  0
   10.1890    8.9160    6.6160 C   0  0  0  0  0  0  0  0  0  0  0  0
   11.2390    7.5940    6.2870 Cl  0  0  0  0  0  0  0  0  0  0  0  0
    9.0330    8.7110    7.3630 C   0  0  0  0  0  0  0  0  0  0  0  0
    8.1820    9.7860    7.6250 C   0  0  0  0  0  0  0  0  0  0  0  0
    8.4870   11.0640    7.1390 C   0  0  0  0  0  0  0  0  0  0  0  0
    7.3810   12.3380    7.5050 Cl  0  0  0  0  0  0  0  0  0  0  0  0
    8.4440   13.2030    4.0670 C   0  0  0  0  0  0  0  0  0  0  0  0
    7.5280   12.3810    3.9800 O   0  0  0  0  0  0  0  0  0  0  0  0
    8.2110   14.7000    3.8080 C   0  0  0  0  0  0  0  0  0  0  0  0
    7.9890   15.4190    5.0330 N   0  0  0  0  0  0  0  0  0  0  0  0
    8.9870   15.9660    5.8550 C   0  0  0  0  0  0  0  0  0  0  0  0
   10.1760   16.0620    5.5960 O   0  0  0  0  0  0  0  0  0  0  0  0
    8.3380   16.3840    7.0370 N   0  0  0  0  0  0  0  0  0  0  0  0
    8.9690   16.9460    8.1940 C   0  0  0  0  0  0  0  0  0  0  0  0
    6.9930   16.0210    6.9410 C   0  0  0  0  0  0  0  0  0  0  0  0
    5.9290   16.1220    7.7780 C   0  0  0  0  0  0  0  0  0  0  0  0
    4.7150   15.6530    7.4110 N   0  0  0  0  0  0  0  0  0  0  0  0
    4.6010   15.0670    6.1830 C   0  0  0  0  0  0  0  0  0  0  0  0
    3.2750   14.5360    5.7980 C   0  0  0  0  0  0  0  0  0  0  0  0
    2.1580   15.3820    5.6490 C   0  0  0  0  0  0  0  0  0  0  0  0
    0.9030   14.8800    5.2880 C   0  0  0  0  0  0  0  0  0  0  0  0
    0.7340   13.5170    5.0680 C   0  0  0  0  0  0  0  0  0  0  0  0
    1.8190   12.6560    5.2090 C   0  0  0  0  0  0  0  0  0  0  0  0
    3.0720   13.1620    5.5680 C   0  0  0  0  0  0  0  0  0  0  0  0
    5.6080   14.9380    5.2900 N   0  0  0  0  0  0  0  0  0  0  0  0
    6.7720   15.4230    5.7200 C   0  0  0  0  0  0  0  0  0  0  0  0
   10.1539   11.4318    2.2110 H   0  0  0  0  0  0  0  0  0  0  0  0
    9.9358   13.0922    1.5613 H   0  0  0  0  0  0  0  0  0  0  0  0
   11.5645   12.3344    1.5613 H   0  0  0  0  0  0  0  0  0  0  0  0
   11.7661   12.5009    3.9193 H   0  0  0  0  0  0  0  0  0  0  0  0
   11.0498   14.0825    3.3795 H   0  0  0  0  0  0  0  0  0  0  0  0
   11.0982   12.7959    6.0019 H   0  0  0  0  0  0  0  0  0  0  0  0
    9.3946   13.3717    6.3661 H   0  0  0  0  0  0  0  0  0  0  0  0
   11.4203   10.3342    5.5454 H   0  0  0  0  0  0  0  0  0  0  0  0
    8.7913    7.7080    7.7447 H   0  0  0  0  0  0  0  0  0  0  0  0
    7.2676    9.6289    8.2159 H   0  0  0  0  0  0  0  0  0  0  0  0
    9.0952   15.1173    3.3040 H   0  0  0  0  0  0  0  0  0  0  0  0
    7.3149   14.8057    3.1788 H   0  0  0  0  0  0  0  0  0  0  0  0
    8.5051   16.5328    9.1018 H   0  0  0  0  0  0  0  0  0  0  0  0
   10.0406   16.6976    8.1843 H   0  0  0  0  0  0  0  0  0  0  0  0
    8.8458   18.0390    8.1843 H   0  0  0  0  0  0  0  0  0  0  0  0
    6.0558   16.5903    8.7652 H   0  0  0  0  0  0  0  0  0  0  0  0
    2.2755   16.4622    5.8205 H   0  0  0  0  0  0  0  0  0  0  0  0
    0.0487   15.5642    5.1780 H   0  0  0  0  0  0  0  0  0  0  0  0
   -0.2522   13.1212    4.7840 H   0  0  0  0  0  0  0  0  0  0  0  0
    1.6904   11.5770    5.0379 H   0  0  0  0  0  0  0  0  0  0  0  0
    3.9201   12.4694    5.6733 H   0  0  0  0  0  0  0  0  0  0  0  0
  1  2  1  0
  2  3  1  0
  3  4  1  0
  4  5  1  0
  5  6  2  0
  6  7  1  0
  7  8  1  0
  7  9  2  0
  9 10  1  0
 10 11  2  0
 11 12  1  0
  3 13  1  0
 13 14  2  0
 13 15  1  0
 15 16  1  0
 16 17  1  0
 17 18  2  0
 17 19  1  0
 19 20  1  0
 19 21  1  0
 21 22  2  0
 22 23  1  0
 23 24  2  0
 24 25  1  0
 25 26  2  0
 26 27  1  0
 27 28  2  0
 28 29  1  0
 29 30  2  0
 24 31  1  0
 31 32  2  0
 11  5  1  0
 32 16  1  0
 32 21  1  0
 30 25  1  0
  1 33  1  0
  1 34  1  0
  1 35  1  0
  2 36  1  0
  2 37  1  0
  4 38  1  0
  4 39  1  0
  6 40  1  0
  9 41  1  0
 10 42  1  0
 15 43  1  0
 15 44  1  0
 20 45  1  0
 20 46  1  0
 20 47  1  0
 22 48  1  0
 26 49  1  0
 27 50  1  0
 28 51  1  0
 29 52  1  0
 30 53  1  0
M  END
>  <meeko>  (6) 
{"is_sidechain": [false], "free_energy": -4.905, "intermolecular_energy": -8.058, "internal_energy": -1.68}

$$$$
A8_fine14_out
     RDKit          3D

 53 56  0  0  0  0  0  0  0  0999 V2000
    0.4120   18.9500    8.6020 C   0  0  0  0  0  0  0  0  0  0  0  0
    0.3030   19.2220    7.1090 C   0  0  0  0  0  0  0  0  0  0  0  0
    0.8880   18.1450    6.3010 N   0  0  0  0  0  0  0  0  0  0  0  0
   -0.0130   17.2440    5.5750 C   0  0  0  0  0  0  0  0  0  0  0  0
   -0.0040   15.8160    6.0700 C   0  0  0  0  0  0  0  0  0  0  0  0
    0.8500   14.8820    5.4510 C   0  0  0  0  0  0  0  0  0  0  0  0
    0.8810   13.5540    5.8780 C   0  0  0  0  0  0  0  0  0  0  0  0
    1.9270   12.4320    5.1000 Cl  0  0  0  0  0  0  0  0  0  0  0  0
    0.0710   13.1320    6.9280 C   0  0  0  0  0  0  0  0  0  0  0  0
   -0.7770   14.0450    7.5540 C   0  0  0  0  0  0  0  0  0  0  0  0
   -0.8160   15.3800    7.1300 C   0  0  0  0  0  0  0  0  0  0  0  0
   -1.8960   16.4450    7.9560 Cl  0  0  0  0  0  0  0  0  0  0  0  0
    2.2180   18.1810    5.8540 C   0  0  0  0  0  0  0  0  0  0  0  0
    2.4920   18.2990    4.6560 O   0  0  0  0  0  0  0  0  0  0  0  0
    3.3140   18.0660    6.9250 C   0  0  0  0  0  0  0  0  0  0  0  0
    3.7890   16.7150    7.0490 N   0  0  0  0  0  0  0  0  0  0  0  0
    4.5880   16.0380    6.1150 C   0  0  0  0  0  0  0  0  0  0  0  0
    5.1350   16.5190    5.1360 O   0  0  0  0  0  0  0  0  0  0  0  0
    4.6320   14.6910    6.5370 N   0  0  0  0  0  0  0  0  0  0  0  0
    5.2800   13.6120    5.8530 C   0  0  0  0  0  0  0  0  0  0  0  0
    3.8120   14.5660    7.6600 C   0  0  0  0  0  0  0  0  0  0  0  0
    3.4410   13.5200    8.4420 C   0  0  0  0  0  0  0  0  0  0  0  0
    2.5940   13.7000    9.4810 N   0  0  0  0  0  0  0  0  0  0  0  0
    2.1200   14.9610    9.7060 C   0  0  0  0  0  0  0  0  0  0  0  0
    1.1770   15.1460   10.8300 C   0  0  0  0  0  0  0  0  0  0  0  0
    0.0630   16.0020   10.7250 C   0  0  0  0  0  0  0  0  0  0  0  0
   -0.8270   16.1790   11.7910 C   0  0  0  0  0  0  0  0  0  0  0  0
   -0.6240   15.5030   12.9890 C   0  0  0  0  0  0  0  0  0  0  0  0
    0.4690   14.6510   13.1240 C   0  0  0  0  0  0  0  0  0  0  0  0
    1.3550   14.4760   12.0560 C   0  0  0  0  0  0  0  0  0  0  0  0
    2.4490   16.0530    8.9810 N   0  0  0  0  0  0  0  0  0  0  0  0
    3.2850   15.7980    7.9760 C   0  0  0  0  0  0  0  0  0  0  0  0
    0.0597   19.8291    9.1615 H   0  0  0  0  0  0  0  0  0  0  0  0
   -0.2061   18.0780    8.8619 H   0  0  0  0  0  0  0  0  0  0  0  0
    1.4612   18.7462    8.8619 H   0  0  0  0  0  0  0  0  0  0  0  0
   -0.7599   19.3245    6.8450 H   0  0  0  0  0  0  0  0  0  0  0  0
    0.8618   20.1447    6.8940 H   0  0  0  0  0  0  0  0  0  0  0  0
   -1.0374   17.6337    5.6687 H   0  0  0  0  0  0  0  0  0  0  0  0
    0.3433   17.2167    4.5347 H   0  0  0  0  0  0  0  0  0  0  0  0
    1.4989   15.2029    4.6228 H   0  0  0  0  0  0  0  0  0  0  0  0
    0.0995   12.0844    7.2622 H   0  0  0  0  0  0  0  0  0  0  0  0
   -1.4184   13.7156    8.3847 H   0  0  0  0  0  0  0  0  0  0  0  0
    4.1559   18.7168    6.6463 H   0  0  0  0  0  0  0  0  0  0  0  0
    2.8862   18.3717    7.8912 H   0  0  0  0  0  0  0  0  0  0  0  0
    5.7008   12.9113    6.5891 H   0  0  0  0  0  0  0  0  0  0  0  0
    4.5484   13.0857    5.2223 H   0  0  0  0  0  0  0  0  0  0  0  0
    6.0884   14.0105    5.2223 H   0  0  0  0  0  0  0  0  0  0  0  0
    3.8336   12.5150    8.2282 H   0  0  0  0  0  0  0  0  0  0  0  0
   -0.1115   16.5438    9.7837 H   0  0  0  0  0  0  0  0  0  0  0  0
   -1.6885   16.8541   11.6807 H   0  0  0  0  0  0  0  0  0  0  0  0
   -1.3238   15.6407   13.8264 H   0  0  0  0  0  0  0  0  0  0  0  0
    0.6356   14.1157   14.0704 H   0  0  0  0  0  0  0  0  0  0  0  0
    2.2126   13.7978   12.1766 H   0  0  0  0  0  0  0  0  0  0  0  0
  1  2  1  0
  2  3  1  0
  3  4  1  0
  4  5  1  0
  5  6  2  0
  6  7  1  0
  7  8  1  0
  7  9  2  0
  9 10  1  0
 10 11  2  0
 11 12  1  0
  3 13  1  0
 13 14  2  0
 13 15  1  0
 15 16  1  0
 16 17  1  0
 17 18  2  0
 17 19  1  0
 19 20  1  0
 19 21  1  0
 21 22  2  0
 22 23  1  0
 23 24  2  0
 24 25  1  0
 25 26  2  0
 26 27  1  0
 27 28  2  0
 28 29  1  0
 29 30  2  0
 24 31  1  0
 31 32  2  0
 11  5  1  0
 32 16  1  0
 32 21  1  0
 30 25  1  0
  1 33  1  0
  1 34  1  0
  1 35  1  0
  2 36  1  0
  2 37  1  0
  4 38  1  0
  4 39  1  0
  6 40  1  0
  9 41  1  0
 10 42  1  0
 15 43  1  0
 15 44  1  0
 20 45  1  0
 20 46  1  0
 20 47  1  0
 22 48  1  0
 26 49  1  0
 27 50  1  0
 28 51  1  0
 29 52  1  0
 30 53  1  0
M  END
>  <meeko>  (7) 
{"is_sidechain": [false], "free_energy": -4.891, "intermolecular_energy": -6.854, "internal_energy": -2.865}

$$$$
A8_fine14_out
     RDKit          3D

 53 56  0  0  0  0  0  0  0  0999 V2000
    4.4930   16.0230    5.8040 C   0  0  0  0  0  0  0  0  0  0  0  0
    4.7560   16.0820    7.3020 C   0  0  0  0  0  0  0  0  0  0  0  0
    4.4940   14.7980    7.9650 N   0  0  0  0  0  0  0  0  0  0  0  0
    3.7320   13.7770    7.2390 C   0  0  0  0  0  0  0  0  0  0  0  0
    2.2330   13.8730    7.4120 C   0  0  0  0  0  0  0  0  0  0  0  0
    1.7150   14.5530    8.5300 C   0  0  0  0  0  0  0  0  0  0  0  0
    0.3370   14.6570    8.7240 C   0  0  0  0  0  0  0  0  0  0  0  0
   -0.2710   15.4870   10.1020 Cl  0  0  0  0  0  0  0  0  0  0  0  0
   -0.5490   14.0920    7.8110 C   0  0  0  0  0  0  0  0  0  0  0  0
   -0.0500   13.4170    6.6960 C   0  0  0  0  0  0  0  0  0  0  0  0
    1.3310   13.3060    6.4950 C   0  0  0  0  0  0  0  0  0  0  0  0
    1.8650   12.4520    5.0920 Cl  0  0  0  0  0  0  0  0  0  0  0  0
    5.2620   14.3430    9.0470 C   0  0  0  0  0  0  0  0  0  0  0  0
    4.7370   13.9670   10.0990 O   0  0  0  0  0  0  0  0  0  0  0  0
    6.7880   14.3390    8.8620 C   0  0  0  0  0  0  0  0  0  0  0  0
    7.2600   13.0630    8.3980 N   0  0  0  0  0  0  0  0  0  0  0  0
    7.7190   12.0140    9.2090 C   0  0  0  0  0  0  0  0  0  0  0  0
    7.6490   11.9470   10.4260 O   0  0  0  0  0  0  0  0  0  0  0  0
    8.2730   11.0540    8.3350 N   0  0  0  0  0  0  0  0  0  0  0  0
    8.9250    9.8370    8.7200 C   0  0  0  0  0  0  0  0  0  0  0  0
    8.2080   11.5650    7.0380 C   0  0  0  0  0  0  0  0  0  0  0  0
    8.6240   11.1140    5.8270 C   0  0  0  0  0  0  0  0  0  0  0  0
    8.4350   11.8550    4.7120 N   0  0  0  0  0  0  0  0  0  0  0  0
    7.8260   13.0700    4.8480 C   0  0  0  0  0  0  0  0  0  0  0  0
    7.6430   13.8840    3.6270 C   0  0  0  0  0  0  0  0  0  0  0  0
    7.4200   15.2740    3.6940 C   0  0  0  0  0  0  0  0  0  0  0  0
    7.2450   16.0430    2.5380 C   0  0  0  0  0  0  0  0  0  0  0  0
    7.2860   15.4400    1.2860 C   0  0  0  0  0  0  0  0  0  0  0  0
    7.5020   14.0680    1.1870 C   0  0  0  0  0  0  0  0  0  0  0  0
    7.6790   13.3040    2.3440 C   0  0  0  0  0  0  0  0  0  0  0  0
    7.3750   13.5830    6.0130 N   0  0  0  0  0  0  0  0  0  0  0  0
    7.5960   12.7980    7.0670 C   0  0  0  0  0  0  0  0  0  0  0  0
    3.4337   15.7854    5.6268 H   0  0  0  0  0  0  0  0  0  0  0  0
    4.7310   16.9969    5.3513 H   0  0  0  0  0  0  0  0  0  0  0  0
    5.1242   15.2441    5.3513 H   0  0  0  0  0  0  0  0  0  0  0  0
    5.8086   16.3564    7.4658 H   0  0  0  0  0  0  0  0  0  0  0  0
    4.0741   16.8291    7.7342 H   0  0  0  0  0  0  0  0  0  0  0  0
    3.9612   13.8742    6.1675 H   0  0  0  0  0  0  0  0  0  0  0  0
    4.0338   12.8052    7.6567 H   0  0  0  0  0  0  0  0  0  0  0  0
    2.4032   15.0070    9.2582 H   0  0  0  0  0  0  0  0  0  0  0  0
   -1.6345   14.1769    7.9672 H   0  0  0  0  0  0  0  0  0  0  0  0
   -0.7458   12.9696    5.9710 H   0  0  0  0  0  0  0  0  0  0  0  0
    7.0607   15.1099    8.1262 H   0  0  0  0  0  0  0  0  0  0  0  0
    7.2540   14.5452    9.8369 H   0  0  0  0  0  0  0  0  0  0  0  0
    8.9602    9.7712    9.8175 H   0  0  0  0  0  0  0  0  0  0  0  0
    8.3659    8.9788    8.3190 H   0  0  0  0  0  0  0  0  0  0  0  0
    9.9493    9.8270    8.3190 H   0  0  0  0  0  0  0  0  0  0  0  0
    9.1202   10.1351    5.7521 H   0  0  0  0  0  0  0  0  0  0  0  0
    7.3827   15.7656    4.6773 H   0  0  0  0  0  0  0  0  0  0  0  0
    7.0747   17.1266    2.6201 H   0  0  0  0  0  0  0  0  0  0  0  0
    7.1484   16.0443    0.3772 H   0  0  0  0  0  0  0  0  0  0  0  0
    7.5333   13.5857    0.1989 H   0  0  0  0  0  0  0  0  0  0  0  0
    7.8509   12.2216    2.2501 H   0  0  0  0  0  0  0  0  0  0  0  0
  1  2  1  0
  2  3  1  0
  3  4  1  0
  4  5  1  0
  5  6  2  0
  6  7  1  0
  7  8  1  0
  7  9  2  0
  9 10  1  0
 10 11  2  0
 11 12  1  0
  3 13  1  0
 13 14  2  0
 13 15  1  0
 15 16  1  0
 16 17  1  0
 17 18  2  0
 17 19  1  0
 19 20  1  0
 19 21  1  0
 21 22  2  0
 22 23  1  0
 23 24  2  0
 24 25  1  0
 25 26  2  0
 26 27  1  0
 27 28  2  0
 28 29  1  0
 29 30  2  0
 24 31  1  0
 31 32  2  0
 11  5  1  0
 32 16  1  0
 32 21  1  0
 30 25  1  0
  1 33  1  0
  1 34  1  0
  1 35  1  0
  2 36  1  0
  2 37  1  0
  4 38  1  0
  4 39  1  0
  6 40  1  0
  9 41  1  0
 10 42  1  0
 15 43  1  0
 15 44  1  0
 20 45  1  0
 20 46  1  0
 20 47  1  0
 22 48  1  0
 26 49  1  0
 27 50  1  0
 28 51  1  0
 29 52  1  0
 30 53  1  0
M  END
>  <meeko>  (8) 
{"is_sidechain": [false], "free_energy": -4.82, "intermolecular_energy": -7.939, "internal_energy": -1.68}

$$$$
A8_fine14_out
     RDKit          3D

 53 56  0  0  0  0  0  0  0  0999 V2000
    3.0900   13.7020    8.8940 C   0  0  0  0  0  0  0  0  0  0  0  0
    3.8710   14.8960    8.3640 C   0  0  0  0  0  0  0  0  0  0  0  0
    4.5810   14.5880    7.1160 N   0  0  0  0  0  0  0  0  0  0  0  0
    4.2300   15.3380    5.9060 C   0  0  0  0  0  0  0  0  0  0  0  0
    2.7440   15.4650    5.6570 C   0  0  0  0  0  0  0  0  0  0  0  0
    2.1470   16.7390    5.7110 C   0  0  0  0  0  0  0  0  0  0  0  0
    0.7780   16.8930    5.4910 C   0  0  0  0  0  0  0  0  0  0  0  0
    0.0720   18.4600    5.5690 Cl  0  0  0  0  0  0  0  0  0  0  0  0
   -0.0200   15.7890    5.2100 C   0  0  0  0  0  0  0  0  0  0  0  0
    0.5570   14.5200    5.1490 C   0  0  0  0  0  0  0  0  0  0  0  0
    1.9300   14.3560    5.3710 C   0  0  0  0  0  0  0  0  0  0  0  0
    2.5640   12.7520    5.2810 Cl  0  0  0  0  0  0  0  0  0  0  0  0
    5.8260   13.9410    7.1030 C   0  0  0  0  0  0  0  0  0  0  0  0
    6.6870   14.1820    7.9540 O   0  0  0  0  0  0  0  0  0  0  0  0
    6.0680   12.9220    5.9780 C   0  0  0  0  0  0  0  0  0  0  0  0
    7.4680   12.7840    5.6820 N   0  0  0  0  0  0  0  0  0  0  0  0
    8.1520   13.4310    4.6420 C   0  0  0  0  0  0  0  0  0  0  0  0
    7.7220   14.3210    3.9260 O   0  0  0  0  0  0  0  0  0  0  0  0
    9.4360   12.8460    4.5930 N   0  0  0  0  0  0  0  0  0  0  0  0
   10.4660   13.1450    3.6420 C   0  0  0  0  0  0  0  0  0  0  0  0
    9.4790   11.8220    5.5410 C   0  0  0  0  0  0  0  0  0  0  0  0
   10.4180   10.9080    5.8970 C   0  0  0  0  0  0  0  0  0  0  0  0
   10.1640   10.0000    6.8670 N   0  0  0  0  0  0  0  0  0  0  0  0
    8.9350   10.0270    7.4610 C   0  0  0  0  0  0  0  0  0  0  0  0
    8.6580    9.0160    8.5050 C   0  0  0  0  0  0  0  0  0  0  0  0
    9.6570    8.1300    8.9560 C   0  0  0  0  0  0  0  0  0  0  0  0
    9.3930    7.1720    9.9420 C   0  0  0  0  0  0  0  0  0  0  0  0
    8.1230    7.0760   10.5000 C   0  0  0  0  0  0  0  0  0  0  0  0
    7.1160    7.9370   10.0730 C   0  0  0  0  0  0  0  0  0  0  0  0
    7.3830    8.8940    9.0890 C   0  0  0  0  0  0  0  0  0  0  0  0
    7.9540   10.9090    7.1710 N   0  0  0  0  0  0  0  0  0  0  0  0
    8.2750   11.7720    6.2080 C   0  0  0  0  0  0  0  0  0  0  0  0
    3.0995   13.7166    9.9939 H   0  0  0  0  0  0  0  0  0  0  0  0
    2.0514   13.7549    8.5356 H   0  0  0  0  0  0  0  0  0  0  0  0
    3.5546   12.7716    8.5356 H   0  0  0  0  0  0  0  0  0  0  0  0
    3.1698   15.7227    8.1773 H   0  0  0  0  0  0  0  0  0  0  0  0
    4.6220   15.1692    9.1198 H   0  0  0  0  0  0  0  0  0  0  0  0
    4.6514   16.3502    5.9946 H   0  0  0  0  0  0  0  0  0  0  0  0
    4.6428   14.7736    5.0569 H   0  0  0  0  0  0  0  0  0  0  0  0
    2.7662   17.6217    5.9288 H   0  0  0  0  0  0  0  0  0  0  0  0
   -1.0989   15.9155    5.0370 H   0  0  0  0  0  0  0  0  0  0  0  0
   -0.0697   13.6441    4.9254 H   0  0  0  0  0  0  0  0  0  0  0  0
    5.6709   11.9447    6.2899 H   0  0  0  0  0  0  0  0  0  0  0  0
    5.5583   13.2818    5.0720 H   0  0  0  0  0  0  0  0  0  0  0  0
   11.3902   13.4133    4.1747 H   0  0  0  0  0  0  0  0  0  0  0  0
   10.6495   12.2630    3.0107 H   0  0  0  0  0  0  0  0  0  0  0  0
   10.1487   13.9881    3.0107 H   0  0  0  0  0  0  0  0  0  0  0  0
   11.3950   10.9059    5.3916 H   0  0  0  0  0  0  0  0  0  0  0  0
   10.6665    8.1927    8.5236 H   0  0  0  0  0  0  0  0  0  0  0  0
   10.1919    6.4937   10.2761 H   0  0  0  0  0  0  0  0  0  0  0  0
    7.9151    6.3235   11.2749 H   0  0  0  0  0  0  0  0  0  0  0  0
    6.1092    7.8645   10.5101 H   0  0  0  0  0  0  0  0  0  0  0  0
    6.5770    9.5680    8.7633 H   0  0  0  0  0  0  0  0  0  0  0  0
  1  2  1  0
  2  3  1  0
  3  4  1  0
  4  5  1  0
  5  6  2  0
  6  7  1  0
  7  8  1  0
  7  9  2  0
  9 10  1  0
 10 11  2  0
 11 12  1  0
  3 13  1  0
 13 14  2  0
 13 15  1  0
 15 16  1  0
 16 17  1  0
 17 18  2  0
 17 19  1  0
 19 20  1  0
 19 21  1  0
 21 22  2  0
 22 23  1  0
 23 24  2  0
 24 25  1  0
 25 26  2  0
 26 27  1  0
 27 28  2  0
 28 29  1  0
 29 30  2  0
 24 31  1  0
 31 32  2  0
 11  5  1  0
 32 16  1  0
 32 21  1  0
 30 25  1  0
  1 33  1  0
  1 34  1  0
  1 35  1  0
  2 36  1  0
  2 37  1  0
  4 38  1  0
  4 39  1  0
  6 40  1  0
  9 41  1  0
 10 42  1  0
 15 43  1  0
 15 44  1  0
 20 45  1  0
 20 46  1  0
 20 47  1  0
 22 48  1  0
 26 49  1  0
 27 50  1  0
 28 51  1  0
 29 52  1  0
 30 53  1  0
M  END
>  <meeko>  (9) 
{"is_sidechain": [false], "free_energy": -4.732, "intermolecular_energy": -8.212, "internal_energy": -1.282}

$$$$
A8_fine14_out
     RDKit          3D

 53 56  0  0  0  0  0  0  0  0999 V2000
    4.0980   13.8380    9.3710 C   0  0  0  0  0  0  0  0  0  0  0  0
    5.0350   14.9370    8.8940 C   0  0  0  0  0  0  0  0  0  0  0  0
    5.5920   14.6570    7.5640 N   0  0  0  0  0  0  0  0  0  0  0  0
    5.1550   15.4820    6.4340 C   0  0  0  0  0  0  0  0  0  0  0  0
    3.7220   15.2550    6.0080 C   0  0  0  0  0  0  0  0  0  0  0  0
    3.2950   13.9460    5.7150 C   0  0  0  0  0  0  0  0  0  0  0  0
    1.9810   13.6990    5.3140 C   0  0  0  0  0  0  0  0  0  0  0  0
    1.4860   12.0920    4.9530 Cl  0  0  0  0  0  0  0  0  0  0  0  0
    1.0700   14.7450    5.2030 C   0  0  0  0  0  0  0  0  0  0  0  0
    1.4770   16.0470    5.4950 C   0  0  0  0  0  0  0  0  0  0  0  0
    2.7940   16.3040    5.8950 C   0  0  0  0  0  0  0  0  0  0  0  0
    3.2180   17.9430    6.2340 Cl  0  0  0  0  0  0  0  0  0  0  0  0
    6.7920   13.9520    7.3880 C   0  0  0  0  0  0  0  0  0  0  0  0
    7.8040   14.2280    8.0400 O   0  0  0  0  0  0  0  0  0  0  0  0
    6.7880   12.8240    6.3440 C   0  0  0  0  0  0  0  0  0  0  0  0
    8.1230   12.3900    6.0300 N   0  0  0  0  0  0  0  0  0  0  0  0
    8.9040   12.8530    4.9610 C   0  0  0  0  0  0  0  0  0  0  0  0
    8.6530   13.7950    4.2260 O   0  0  0  0  0  0  0  0  0  0  0  0
   10.0370   12.0130    4.9090 N   0  0  0  0  0  0  0  0  0  0  0  0
   11.0860   12.0670    3.9330 C   0  0  0  0  0  0  0  0  0  0  0  0
    9.8870   11.0270    5.8860 C   0  0  0  0  0  0  0  0  0  0  0  0
   10.6220    9.9480    6.2540 C   0  0  0  0  0  0  0  0  0  0  0  0
   10.2070    9.1370    7.2530 N   0  0  0  0  0  0  0  0  0  0  0  0
    9.0230    9.4340    7.8660 C   0  0  0  0  0  0  0  0  0  0  0  0
    8.5650    8.5300    8.9430 C   0  0  0  0  0  0  0  0  0  0  0  0
    7.2560    8.6040    9.4610 C   0  0  0  0  0  0  0  0  0  0  0  0
    6.8240    7.7500   10.4820 C   0  0  0  0  0  0  0  0  0  0  0  0
    7.6920    6.8010   11.0110 C   0  0  0  0  0  0  0  0  0  0  0  0
    8.9910    6.7050   10.5220 C   0  0  0  0  0  0  0  0  0  0  0  0
    9.4180    7.5590    9.5000 C   0  0  0  0  0  0  0  0  0  0  0  0
    8.2400   10.4940    7.5650 N   0  0  0  0  0  0  0  0  0  0  0  0
    8.7130   11.2460    6.5730 C   0  0  0  0  0  0  0  0  0  0  0  0
    4.0831   13.8206   10.4708 H   0  0  0  0  0  0  0  0  0  0  0  0
    3.0831   14.0320    8.9936 H   0  0  0  0  0  0  0  0  0  0  0  0
    4.4501   12.8666    8.9936 H   0  0  0  0  0  0  0  0  0  0  0  0
    4.4768   15.8839    8.8514 H   0  0  0  0  0  0  0  0  0  0  0  0
    5.8731   14.9960    9.6040 H   0  0  0  0  0  0  0  0  0  0  0  0
    5.2656   16.5391    6.7175 H   0  0  0  0  0  0  0  0  0  0  0  0
    5.7843   15.1977    5.5778 H   0  0  0  0  0  0  0  0  0  0  0  0
    4.0039   13.1095    5.8029 H   0  0  0  0  0  0  0  0  0  0  0  0
    0.0353   14.5464    4.8869 H   0  0  0  0  0  0  0  0  0  0  0  0
    0.7593   16.8763    5.4105 H   0  0  0  0  0  0  0  0  0  0  0  0
    6.2194   11.9707    6.7422 H   0  0  0  0  0  0  0  0  0  0  0  0
    6.3251   13.2084    5.4232 H   0  0  0  0  0  0  0  0  0  0  0  0
   12.0593   12.1171    4.4432 H   0  0  0  0  0  0  0  0  0  0  0  0
   11.0479   11.1657    3.3035 H   0  0  0  0  0  0  0  0  0  0  0  0
   10.9556   12.9596    3.3035 H   0  0  0  0  0  0  0  0  0  0  0  0
   11.5664    9.7303    5.7337 H   0  0  0  0  0  0  0  0  0  0  0  0
    6.5581    9.3502    9.0533 H   0  0  0  0  0  0  0  0  0  0  0  0
    5.7965    7.8295   10.8666 H   0  0  0  0  0  0  0  0  0  0  0  0
    7.3529    6.1288   11.8130 H   0  0  0  0  0  0  0  0  0  0  0  0
    9.6820    5.9576   10.9391 H   0  0  0  0  0  0  0  0  0  0  0  0
   10.4471    7.4694    9.1218 H   0  0  0  0  0  0  0  0  0  0  0  0
  1  2  1  0
  2  3  1  0
  3  4  1  0
  4  5  1  0
  5  6  2  0
  6  7  1  0
  7  8  1  0
  7  9  2  0
  9 10  1  0
 10 11  2  0
 11 12  1  0
  3 13  1  0
 13 14  2  0
 13 15  1  0
 15 16  1  0
 16 17  1  0
 17 18  2  0
 17 19  1  0
 19 20  1  0
 19 21  1  0
 21 22  2  0
 22 23  1  0
 23 24  2  0
 24 25  1  0
 25 26  2  0
 26 27  1  0
 27 28  2  0
 28 29  1  0
 29 30  2  0
 24 31  1  0
 31 32  2  0
 11  5  1  0
 32 16  1  0
 32 21  1  0
 30 25  1  0
  1 33  1  0
  1 34  1  0
  1 35  1  0
  2 36  1  0
  2 37  1  0
  4 38  1  0
  4 39  1  0
  6 40  1  0
  9 41  1  0
 10 42  1  0
 15 43  1  0
 15 44  1  0
 20 45  1  0
 20 46  1  0
 20 47  1  0
 22 48  1  0
 26 49  1  0
 27 50  1  0
 28 51  1  0
 29 52  1  0
 30 53  1  0
M  END
>  <meeko>  (10) 
{"is_sidechain": [false], "free_energy": -4.674, "intermolecular_energy": -8.094, "internal_energy": -1.319}

$$$$
