A8_fine14_out
 OpenBabel07312614423D

 53 56  0  0  0  0  0  0  0  0999 V2000
    1.9270   19.2120    4.0660 C   0  0  0  0  0  0  0  0  0  0  0  0
    1.8770   17.9650    4.9360 C   0  0  0  0  0  0  0  0  0  0  0  0
    0.6710   17.9160    5.7720 N   0  0  0  0  0  0  0  0  0  0  0  0
   -0.3660   16.9310    5.4490 C   0  0  0  0  0  0  0  0  0  0  0  0
   -0.1210   15.5530    6.0190 C   0  0  0  0  0  0  0  0  0  0  0  0
    0.7870   14.6950    5.3710 C   0  0  0  0  0  0  0  0  0  0  0  0
    1.0340   13.4140    5.8660 C   0  0  0  0  0  0  0  0  0  0  0  0
    2.1430   12.3830    5.0510 Cl  0  0  0  0  0  0  0  0  0  0  0  0
    0.3880   12.9650    7.0140 C   0  0  0  0  0  0  0  0  0  0  0  0
   -0.5120   13.8050    7.6710 C   0  0  0  0  0  0  0  0  0  0  0  0
   -0.7670   15.0910    7.1790 C   0  0  0  0  0  0  0  0  0  0  0  0
   -1.8980   16.0650    8.0480 Cl  0  0  0  0  0  0  0  0  0  0  0  0
    0.6380   18.4450    7.0710 C   0  0  0  0  0  0  0  0  0  0  0  0
   -0.3530   19.0420    7.5000 O   0  0  0  0  0  0  0  0  0  0  0  0
    1.8960   18.2490    7.9330 C   0  0  0  0  0  0  0  0  0  0  0  0
    1.8840   16.9770    8.6020 N   0  0  0  0  0  0  0  0  0  0  0  0
    1.2430   16.6970    9.8190 C   0  0  0  0  0  0  0  0  0  0  0  0
    0.4720   17.4240   10.4230 O   0  0  0  0  0  0  0  0  0  0  0  0
    1.6680   15.4050   10.1990 N   0  0  0  0  0  0  0  0  0  0  0  0
    1.3230   14.7240   11.4120 C   0  0  0  0  0  0  0  0  0  0  0  0
    2.6010   14.9650    9.2580 C   0  0  0  0  0  0  0  0  0  0  0  0
    3.3620   13.8470    9.1390 C   0  0  0  0  0  0  0  0  0  0  0  0
    4.2140   13.6990    8.1000 N   0  0  0  0  0  0  0  0  0  0  0  0
    4.2910   14.7120    7.1880 C   0  0  0  0  0  0  0  0  0  0  0  0
    5.2420   14.5520    6.0660 C   0  0  0  0  0  0  0  0  0  0  0  0
    5.8020   15.6660    5.4100 C   0  0  0  0  0  0  0  0  0  0  0  0
    6.7000   15.5140    4.3480 C   0  0  0  0  0  0  0  0  0  0  0  0
    7.0580   14.2420    3.9140 C   0  0  0  0  0  0  0  0  0  0  0  0
    6.5200   13.1220    4.5410 C   0  0  0  0  0  0  0  0  0  0  0  0
    5.6250   13.2790    5.6040 C   0  0  0  0  0  0  0  0  0  0  0  0
    3.5620   15.8490    7.2300 N   0  0  0  0  0  0  0  0  0  0  0  0
    2.7450   15.9240    8.2800 C   0  0  0  0  0  0  0  0  0  0  0  0
    1.9628   20.1052    4.7071 H   0  0  0  0  0  0  0  0  0  0  0  0
    2.8246   19.1803    3.4309 H   0  0  0  0  0  0  0  0  0  0  0  0
    1.0297   19.2522    3.4309 H   0  0  0  0  0  0  0  0  0  0  0  0
    1.8921   17.0786    4.2847 H   0  0  0  0  0  0  0  0  0  0  0  0
    2.7495   17.9869    5.6055 H   0  0  0  0  0  0  0  0  0  0  0  0
   -1.3247   17.3000    5.8423 H   0  0  0  0  0  0  0  0  0  0  0  0
   -0.3635   16.8217    4.3544 H   0  0  0  0  0  0  0  0  0  0  0  0
    1.3075   15.0379    4.4646 H   0  0  0  0  0  0  0  0  0  0  0  0
    0.5856   11.9545    7.4010 H   0  0  0  0  0  0  0  0  0  0  0  0
   -1.0236   13.4553    8.5798 H   0  0  0  0  0  0  0  0  0  0  0  0
    2.7843   18.3043    7.2866 H   0  0  0  0  0  0  0  0  0  0  0  0
    1.9173   19.0402    8.6969 H   0  0  0  0  0  0  0  0  0  0  0  0
    1.6314   15.3328   12.2747 H   0  0  0  0  0  0  0  0  0  0  0  0
    0.2352   14.5642   11.4461 H   0  0  0  0  0  0  0  0  0  0  0  0
    1.8376   13.7524   11.4461 H   0  0  0  0  0  0  0  0  0  0  0  0
    3.2844   13.0530    9.8963 H   0  0  0  0  0  0  0  0  0  0  0  0
    5.5269   16.6785    5.7404 H   0  0  0  0  0  0  0  0  0  0  0  0
    7.1235   16.4018    3.8555 H   0  0  0  0  0  0  0  0  0  0  0  0
    7.7635   14.1217    3.0786 H   0  0  0  0  0  0  0  0  0  0  0  0
    6.7986   12.1138    4.2006 H   0  0  0  0  0  0  0  0  0  0  0  0
    5.2097   12.3846    6.0915 H   0  0  0  0  0  0  0  0  0  0  0  0
  1  2  1  0  0  0  0
  1 33  1  0  0  0  0
  1 34  1  0  0  0  0
  1 35  1  0  0  0  0
  2  3  1  0  0  0  0
  2 36  1  0  0  0  0
  2 37  1  0  0  0  0
  3  4  1  0  0  0  0
  3 13  1  0  0  0  0
  4  5  1  0  0  0  0
  4 38  1  0  0  0  0
  4 39  1  0  0  0  0
  5  6  2  0  0  0  0
  6  7  1  0  0  0  0
  6 40  1  0  0  0  0
  7  8  1  0  0  0  0
  7  9  2  0  0  0  0
  9 10  1  0  0  0  0
  9 41  1  0  0  0  0
 10 11  2  0  0  0  0
 10 42  1  0  0  0  0
 11 12  1  0  0  0  0
 11  5  1  0  0  0  0
 13 14  2  0  0  0  0
 13 15  1  0  0  0  0
 15 16  1  0  0  0  0
 15 43  1  0  0  0  0
 15 44  1  0  0  0  0
 16 17  1  0  0  0  0
 17 18  2  0  0  0  0
 17 19  1  0  0  0  0
 19 20  1  0  0  0  0
 19 21  1  0  0  0  0
 20 45  1  0  0  0  0
 20 46  1  0  0  0  0
 20 47  1  0  0  0  0
 21 22  2  0  0  0  0
 22 23  1  0  0  0  0
 22 48  1  0  0  0  0
 23 24  2  0  0  0  0
 24 25  1  0  0  0  0
 24 31  1  0  0  0  0
 25 26  2  0  0  0  0
 26 27  1  0  0  0  0
 26 49  1  0  0  0  0
 27 28  2  0  0  0  0
 27 50  1  0  0  0  0
 28 29  1  0  0  0  0
 28 51  1  0  0  0  0
 29 30  2  0  0  0  0
 29 52  1  0  0  0  0
 30 25  1  0  0  0  0
 30 53  1  0  0  0  0
 31 32  2  0  0  0  0
 32 16  1  0  0  0  0
 32 21  1  0  0  0  0
M  END
>  <meeko>
{"is_sidechain": [false], "free_energy": -5.386, "intermolecular_energy": -7.59, "internal_energy": -2.827}

$$$$
