10430788
  -OEChem-09132500223D

 51 53  0     0  0  0  0  0  0999 V2000
   -1.3124    4.5437   -0.3429 F   0  0  0  0  0  0  0  0  0  0  0  0
   -2.5459   -0.6163    1.0774 O   0  0  0  0  0  0  0  0  0  0  0  0
    1.7073    1.2448   -1.9761 O   0  0  0  0  0  0  0  0  0  0  0  0
    5.1909   -2.0666    0.7248 O   0  0  0  0  0  0  0  0  0  0  0  0
    1.4900   -0.7353    2.6533 O   0  0  0  0  0  0  0  0  0  0  0  0
    0.1446    0.1699    0.9125 N   0  0  0  0  0  0  0  0  0  0  0  0
    0.6019   -0.6689   -0.1654 C   0  0  0  0  0  0  0  0  0  0  0  0
    2.0689   -0.5309   -0.4068 C   0  0  0  0  0  0  0  0  0  0  0  0
   -0.9410    1.1089    0.6285 C   0  0  0  0  0  0  0  0  0  0  0  0
    2.5575    0.4207   -1.3019 C   0  0  0  0  0  0  0  0  0  0  0  0
   -2.2239    0.6612    0.7277 C   0  0  0  0  0  0  0  0  0  0  0  0
    2.9538   -1.3671    0.2740 C   0  0  0  0  0  0  0  0  0  0  0  0
    0.6384    0.0582    2.2450 C   0  0  0  0  0  0  0  0  0  0  0  0
   -0.5838    2.3779    0.2799 C   0  0  0  0  0  0  0  0  0  0  0  0
    4.3272   -1.2519    0.0593 C   0  0  0  0  0  0  0  0  0  0  0  0
    3.9310    0.5359   -1.5164 C   0  0  0  0  0  0  0  0  0  0  0  0
   -3.2477    1.5675    0.4525 C   0  0  0  0  0  0  0  0  0  0  0  0
    4.8158   -0.3004   -0.8359 C   0  0  0  0  0  0  0  0  0  0  0  0
   -1.6077    3.2842    0.0046 C   0  0  0  0  0  0  0  0  0  0  0  0
   -2.9396    2.8790    0.0909 C   0  0  0  0  0  0  0  0  0  0  0  0
    0.0746    1.0575    3.2291 C   0  0  0  0  0  0  0  0  0  0  0  0
   -3.2727   -1.3661    0.1693 C   0  0  0  0  0  0  0  0  0  0  0  0
    2.2929    2.1879   -2.8713 C   0  0  0  0  0  0  0  0  0  0  0  0
   -2.9071   -1.3499   -1.1650 C   0  0  0  0  0  0  0  0  0  0  0  0
   -4.3476   -2.1130    0.6180 C   0  0  0  0  0  0  0  0  0  0  0  0
    6.5821   -1.8935    0.4593 C   0  0  0  0  0  0  0  0  0  0  0  0
   -3.6401   -2.1051   -2.0805 C   0  0  0  0  0  0  0  0  0  0  0  0
   -5.0806   -2.8682   -0.2973 C   0  0  0  0  0  0  0  0  0  0  0  0
   -4.7269   -2.8641   -1.6467 C   0  0  0  0  0  0  0  0  0  0  0  0
    0.3664   -1.7071    0.1019 H   0  0  0  0  0  0  0  0  0  0  0  0
    0.0512   -0.4574   -1.0875 H   0  0  0  0  0  0  0  0  0  0  0  0
    2.5884   -2.1383    0.9470 H   0  0  0  0  0  0  0  0  0  0  0  0
    0.4514    2.6955    0.2155 H   0  0  0  0  0  0  0  0  0  0  0  0
    4.3818    1.2510   -2.1959 H   0  0  0  0  0  0  0  0  0  0  0  0
   -4.2913    1.2726    0.5252 H   0  0  0  0  0  0  0  0  0  0  0  0
    5.8699   -0.1580   -1.0488 H   0  0  0  0  0  0  0  0  0  0  0  0
   -3.7364    3.5856   -0.1213 H   0  0  0  0  0  0  0  0  0  0  0  0
    0.5194    0.8787    4.2138 H   0  0  0  0  0  0  0  0  0  0  0  0
    0.3278    2.0783    2.9337 H   0  0  0  0  0  0  0  0  0  0  0  0
   -1.0065    0.9399    3.3338 H   0  0  0  0  0  0  0  0  0  0  0  0
    1.4722    2.7587   -3.3183 H   0  0  0  0  0  0  0  0  0  0  0  0
    2.9272    2.9070   -2.3420 H   0  0  0  0  0  0  0  0  0  0  0  0
    2.8191    1.6917   -3.6938 H   0  0  0  0  0  0  0  0  0  0  0  0
   -2.0717   -0.7691   -1.5365 H   0  0  0  0  0  0  0  0  0  0  0  0
   -4.6244   -2.1167    1.6680 H   0  0  0  0  0  0  0  0  0  0  0  0
    6.9293   -0.9002    0.7635 H   0  0  0  0  0  0  0  0  0  0  0  0
    7.1213   -2.6223    1.0733 H   0  0  0  0  0  0  0  0  0  0  0  0
    6.8229   -2.1157   -0.5858 H   0  0  0  0  0  0  0  0  0  0  0  0
   -3.3656   -2.1014   -3.1314 H   0  0  0  0  0  0  0  0  0  0  0  0
   -5.9269   -3.4591    0.0404 H   0  0  0  0  0  0  0  0  0  0  0  0
   -5.2979   -3.4518   -2.3595 H   0  0  0  0  0  0  0  0  0  0  0  0
  1 19  1  0  0  0  0
  2 11  1  0  0  0  0
  2 22  1  0  0  0  0
  3 10  1  0  0  0  0
  3 23  1  0  0  0  0
  4 15  1  0  0  0  0
  4 26  1  0  0  0  0
  5 13  2  0  0  0  0
  6  7  1  0  0  0  0
  6  9  1  0  0  0  0
  6 13  1  0  0  0  0
  7  8  1  0  0  0  0
  7 30  1  0  0  0  0
  7 31  1  0  0  0  0
  8 10  2  0  0  0  0
  8 12  1  0  0  0  0
  9 11  2  0  0  0  0
  9 14  1  0  0  0  0
 10 16  1  0  0  0  0
 11 17  1  0  0  0  0
 12 15  2  0  0  0  0
 12 32  1  0  0  0  0
 13 21  1  0  0  0  0
 14 19  2  0  0  0  0
 14 33  1  0  0  0  0
 15 18  1  0  0  0  0
 16 18  2  0  0  0  0
 16 34  1  0  0  0  0
 17 20  2  0  0  0  0
 17 35  1  0  0  0  0
 18 36  1  0  0  0  0
 19 20  1  0  0  0  0
 20 37  1  0  0  0  0
 21 38  1  0  0  0  0
 21 39  1  0  0  0  0
 21 40  1  0  0  0  0
 22 24  2  0  0  0  0
 22 25  1  0  0  0  0
 23 41  1  0  0  0  0
 23 42  1  0  0  0  0
 23 43  1  0  0  0  0
 24 27  1  0  0  0  0
 24 44  1  0  0  0  0
 25 28  2  0  0  0  0
 25 45  1  0  0  0  0
 26 46  1  0  0  0  0
 26 47  1  0  0  0  0
 26 48  1  0  0  0  0
 27 29  2  0  0  0  0
 27 49  1  0  0  0  0
 28 29  1  0  0  0  0
 28 50  1  0  0  0  0
 29 51  1  0  0  0  0
M  END
> <PUBCHEM_COMPOUND_CID>
10430788

> <PUBCHEM_CONFORMER_RMSD>
1

> <PUBCHEM_CONFORMER_DIVERSEORDER>
18
80
63
157
71
139
27
145
116
84
103
168
159
151
163
8
108
79
24
78
85
154
40
14
42
144
91
57
30
129
111
156
5
162
142
95
137
75
100
47
106
98
105
66
93
124
104
39
165
119
134
34
155
149
126
109
7
128
19
138
83
43
64
135
58
29
164
45
35
9
141
115
41
21
73
94
61
118
68
52
86
54
153
130
92
147
46
32
16
101
127
123
49
50
65
44
117
37
48
26
140
77
166
136
87
60
148
132
113
74
112
160
89
70
125
171
13
15
110
10
69
170
133
62
96
72
158
12
31
82
81
121
107
99
22
51
120
152
6
28
17
56
53
102
131
55
167
169
114
11
67
59
33
97
23
4
143
90
122
3
2
36
25
146
161
88
38
1
20
150
76

> <PUBCHEM_MMFF94_PARTIAL_CHARGES>
40
1 -0.19
10 0.08
11 0.08
12 -0.15
13 0.57
14 -0.15
15 0.08
16 -0.15
17 -0.15
18 -0.15
19 0.19
2 -0.17
20 -0.15
21 0.06
22 0.08
23 0.28
24 -0.15
25 -0.15
26 0.28
27 -0.15
28 -0.15
29 -0.15
3 -0.36
32 0.15
33 0.15
34 0.15
35 0.15
36 0.15
37 0.15
4 -0.36
44 0.15
45 0.15
49 0.15
5 -0.57
50 0.15
51 0.15
6 -0.48
7 0.44
8 -0.14
9 0.12

> <PUBCHEM_EFFECTIVE_ROTOR_COUNT>
8

> <PUBCHEM_PHARMACOPHORE_FEATURES>
7
1 2 acceptor
1 3 acceptor
1 4 acceptor
1 5 acceptor
6 22 24 25 27 28 29 rings
6 8 10 12 15 16 18 rings
6 9 11 14 17 19 20 rings

> <PUBCHEM_HEAVY_ATOM_COUNT>
29

> <PUBCHEM_ATOM_DEF_STEREO_COUNT>
0

> <PUBCHEM_ATOM_UDEF_STEREO_COUNT>
0

> <PUBCHEM_BOND_DEF_STEREO_COUNT>
0

> <PUBCHEM_BOND_UDEF_STEREO_COUNT>
0

> <PUBCHEM_ISOTOPIC_ATOM_COUNT>
0

> <PUBCHEM_COMPONENT_COUNT>
1

> <PUBCHEM_CACTVS_TAUTO_COUNT>
1

> <PUBCHEM_CONFORMER_ID>
009F294400000012

> <PUBCHEM_MMFF94_ENERGY>
134.7269

> <PUBCHEM_FEATURE_SELFOVERLAP>
35.524

> <PUBCHEM_SHAPE_FINGERPRINT>
10622 236 18261103029109673146
11578080 2 17917990620415243217
1200032 147 14347173652689687183
12553582 1 18341048644361696303
12633257 1 16056598832588862511
12714826 92 17988931054556231667
12788726 201 18339372936673830790
13009979 54 18408605855232838246
13583140 156 17559660768875772222
13911987 19 17249237024815580636
15131766 46 15650761368267060869
15420108 30 17393880657267505004
17349148 13 18113626681384651474
1813 80 18058175105971332735
19026451 147 18193554699517723735
20775438 99 17330534957987701711
2132832 1 18260827111835805404
23402539 116 18041283158578597770
23598288 3 18262252014639252993
3388396 114 18044392731838860876
397830 11 17917413325856440026
4015057 19 17313680321154091572
469060 322 18199486474719032467
57527293 21 17703508886841346246
6669772 16 17473831005172698509
6700243 42 17772784660758802524
7164475 11 18410299094665749166
7471813 234 18335984259090526612
7970288 3 18340484598991771655

> <PUBCHEM_SHAPE_MULTIPOLES>
561.07
10.96
3.91
2.38
7.67
2.77
0.44
-11.76
-2.22
-4.44
-1.05
0.98
0.57
-2.56

> <PUBCHEM_SHAPE_SELFOVERLAP>
1214.284

> <PUBCHEM_SHAPE_VOLUME>
309.2

> <PUBCHEM_COORDINATE_TYPE>
2
5
10

$$$$
