51040949
  -OEChem-07312515513D

 52 54  0     1  0  0  0  0  0999 V2000
    4.2819   -1.7443    1.4063 F  -1  0  0  0  0  0  0  0  0  0  0  0
   -1.6261   -0.6975   -1.6507 O   0  0  0  0  0  0  0  0  0  0  0  0
   -0.9600    2.3897    0.5014 O   0  0  0  0  0  0  0  0  0  0  0  0
    2.4659   -0.6282   -0.4583 N   0  0  0  0  0  0  0  0  0  0  0  0
   -3.3140   -0.3467   -0.0917 N   0  0  0  0  0  0  0  0  0  0  0  0
   -1.0181   -0.8835    0.6231 C   0  0  2  0  0  0  0  0  0  0  0  0
    0.3413   -0.4415    0.1913 C   0  0  0  0  0  0  0  0  0  0  0  0
    1.3572   -1.3327   -0.0866 C   0  0  0  0  0  0  0  0  0  0  0  0
   -1.0291   -2.3778    1.0199 C   0  0  0  0  0  0  0  0  0  0  0  0
    1.2907   -2.8122    0.0262 C   0  0  0  0  0  0  0  0  0  0  0  0
   -0.1786   -3.2632    0.0849 C   0  0  0  0  0  0  0  0  0  0  0  0
    0.8623    0.8695   -0.0152 C   0  0  0  0  0  0  0  0  0  0  0  0
    2.1924    0.7222   -0.4231 C   0  0  0  0  0  0  0  0  0  0  0  0
   -2.0048   -0.6363   -0.4779 C   0  0  0  0  0  0  0  0  0  0  0  0
    3.7440   -1.2059   -0.8178 C   0  0  0  0  0  0  0  0  0  0  0  0
    0.3325    2.1708    0.1033 C   0  0  0  0  0  0  0  0  0  0  0  0
    3.0166    1.8145   -0.7175 C   0  0  0  0  0  0  0  0  0  0  0  0
    1.1462    3.2713   -0.1882 C   0  0  0  0  0  0  0  0  0  0  0  0
    4.7554   -1.0910    0.3111 C   0  0  0  0  0  0  0  0  0  0  0  0
    2.4675    3.0935   -0.5922 C   0  0  0  0  0  0  0  0  0  0  0  0
   -4.3724   -0.0855   -1.0589 C   0  0  0  0  0  0  0  0  0  0  0  0
   -3.7193   -0.2843    1.3103 C   0  0  0  0  0  0  0  0  0  0  0  0
   -5.0876   -1.3602   -1.4561 C   0  0  0  0  0  0  0  0  0  0  0  0
   -3.5607    1.1136    1.8717 C   0  0  0  0  0  0  0  0  0  0  0  0
   -1.3833    3.7456    0.5845 C   0  0  0  0  0  0  0  0  0  0  0  0
   -1.2491   -0.2936    1.5113 H   0  0  0  0  0  0  0  0  0  0  0  0
   -0.6301   -2.4766    2.0383 H   0  0  0  0  0  0  0  0  0  0  0  0
   -2.0507   -2.7746    1.0421 H   0  0  0  0  0  0  0  0  0  0  0  0
    1.8082   -3.1287    0.9394 H   0  0  0  0  0  0  0  0  0  0  0  0
    1.7667   -3.3122   -0.8228 H   0  0  0  0  0  0  0  0  0  0  0  0
   -0.2253   -4.3062    0.4184 H   0  0  0  0  0  0  0  0  0  0  0  0
   -0.6101   -3.2355   -0.9238 H   0  0  0  0  0  0  0  0  0  0  0  0
    4.1041   -0.6924   -1.7160 H   0  0  0  0  0  0  0  0  0  0  0  0
    3.6030   -2.2554   -1.0850 H   0  0  0  0  0  0  0  0  0  0  0  0
    4.0460    1.6886   -1.0353 H   0  0  0  0  0  0  0  0  0  0  0  0
    0.8153    4.3024   -0.1210 H   0  0  0  0  0  0  0  0  0  0  0  0
    4.9453   -0.0538    0.6001 H   0  0  0  0  0  0  0  0  0  0  0  0
    5.7052   -1.5537    0.0282 H   0  0  0  0  0  0  0  0  0  0  0  0
    3.0833    3.9615   -0.8144 H   0  0  0  0  0  0  0  0  0  0  0  0
   -3.9216    0.3584   -1.9538 H   0  0  0  0  0  0  0  0  0  0  0  0
   -5.0755    0.6480   -0.6499 H   0  0  0  0  0  0  0  0  0  0  0  0
   -3.1787   -1.0040    1.9280 H   0  0  0  0  0  0  0  0  0  0  0  0
   -4.7733   -0.5812    1.3739 H   0  0  0  0  0  0  0  0  0  0  0  0
   -4.3904   -2.0850   -1.8896 H   0  0  0  0  0  0  0  0  0  0  0  0
   -5.5643   -1.8347   -0.5923 H   0  0  0  0  0  0  0  0  0  0  0  0
   -5.8631   -1.1469   -2.1982 H   0  0  0  0  0  0  0  0  0  0  0  0
   -2.5169    1.3655    2.0561 H   0  0  0  0  0  0  0  0  0  0  0  0
   -3.9918    1.8694    1.2084 H   0  0  0  0  0  0  0  0  0  0  0  0
   -4.0742    1.1836    2.8367 H   0  0  0  0  0  0  0  0  0  0  0  0
   -0.8220    4.2988    1.3453 H   0  0  0  0  0  0  0  0  0  0  0  0
   -1.3590    4.2382   -0.3936 H   0  0  0  0  0  0  0  0  0  0  0  0
   -2.4293    3.7452    0.9063 H   0  0  0  0  0  0  0  0  0  0  0  0
  1 19  1  0  0  0  0
  2 14  2  0  0  0  0
  3 16  1  0  0  0  0
  3 25  1  0  0  0  0
  4  8  1  0  0  0  0
  4 13  1  0  0  0  0
  4 15  1  0  0  0  0
  5 14  1  0  0  0  0
  5 21  1  0  0  0  0
  5 22  1  0  0  0  0
  6  7  1  0  0  0  0
  6  9  1  0  0  0  0
  6 14  1  0  0  0  0
  6 26  1  0  0  0  0
  7  8  2  0  0  0  0
  7 12  1  0  0  0  0
  8 10  1  0  0  0  0
  9 11  1  0  0  0  0
  9 27  1  0  0  0  0
  9 28  1  0  0  0  0
 10 11  1  0  0  0  0
 10 29  1  0  0  0  0
 10 30  1  0  0  0  0
 11 31  1  0  0  0  0
 11 32  1  0  0  0  0
 12 13  2  0  0  0  0
 12 16  1  0  0  0  0
 13 17  1  0  0  0  0
 15 19  1  0  0  0  0
 15 33  1  0  0  0  0
 15 34  1  0  0  0  0
 16 18  2  0  0  0  0
 17 20  2  0  0  0  0
 17 35  1  0  0  0  0
 18 20  1  0  0  0  0
 18 36  1  0  0  0  0
 19 37  1  0  0  0  0
 19 38  1  0  0  0  0
 20 39  1  0  0  0  0
 21 23  1  0  0  0  0
 21 40  1  0  0  0  0
 21 41  1  0  0  0  0
 22 24  1  0  0  0  0
 22 42  1  0  0  0  0
 22 43  1  0  0  0  0
 23 44  1  0  0  0  0
 23 45  1  0  0  0  0
 23 46  1  0  0  0  0
 24 47  1  0  0  0  0
 24 48  1  0  0  0  0
 24 49  1  0  0  0  0
 25 50  1  0  0  0  0
 25 51  1  0  0  0  0
 25 52  1  0  0  0  0
M  ISO  1   1  18
M  END
> <PUBCHEM_COMPOUND_CID>
51040949

> <PUBCHEM_CONFORMER_RMSD>
0.8

> <PUBCHEM_CONFORMER_DIVERSEORDER>
1
8
7
4
5
6
3
2

> <PUBCHEM_MMFF94_PARTIAL_CHARGES>
23
1 -0.34
10 0.18
13 -0.15
14 0.57
15 0.26
16 0.08
17 -0.15
18 -0.15
19 0.34
2 -0.57
20 -0.15
21 0.3
22 0.3
25 0.28
3 -0.36
35 0.15
36 0.15
39 0.15
4 0.05
5 -0.66
6 0.24
7 -0.18
8 -0.33

> <PUBCHEM_EFFECTIVE_ROTOR_COUNT>
7.8

> <PUBCHEM_PHARMACOPHORE_FEATURES>
6
1 2 acceptor
1 3 acceptor
1 4 cation
5 4 7 8 12 13 rings
6 12 13 16 17 18 20 rings
6 6 7 8 9 10 11 rings

> <PUBCHEM_HEAVY_ATOM_COUNT>
25

> <PUBCHEM_ATOM_DEF_STEREO_COUNT>
1

> <PUBCHEM_ATOM_UDEF_STEREO_COUNT>
0

> <PUBCHEM_BOND_DEF_STEREO_COUNT>
0

> <PUBCHEM_BOND_UDEF_STEREO_COUNT>
0

> <PUBCHEM_ISOTOPIC_ATOM_COUNT>
1

> <PUBCHEM_COMPONENT_COUNT>
1

> <PUBCHEM_CACTVS_TAUTO_COUNT>
1

> <PUBCHEM_CONFORMER_ID>
030AD2B500000001

> <PUBCHEM_MMFF94_ENERGY>
54.0758

> <PUBCHEM_FEATURE_SELFOVERLAP>
30.621

> <PUBCHEM_SHAPE_FINGERPRINT>
104564 63 18195813972452982848
10906281 52 18340506516493498636
10967382 1 18266752448532821776
1100329 8 18335418023872550746
12236239 1 17917712388149006351
12403259 226 18189612920689465895
12553582 1 18337967692146666990
12633257 1 18334588923053272371
12730499 353 18190459557733444727
12788726 201 18340778061411238948
13009979 54 17846510231205157531
13140716 1 18336556026685951818
13583140 156 17676208017345335155
13911987 19 18333454235601423606
14022347 108 18192736487316629678
14178342 30 18050845512341990136
14790565 3 18194148285826821116
16752209 62 18337400323041247782
16945 1 18337684026684004786
17349148 13 18272654558094174802
18219364 16 18117283768754105993
192875 21 18412539920542444354
19591789 44 18338250343849419417
20739085 24 18190485833694852952
21197605 99 17476095531871813793
2334 1 18049732003173229098
23402539 116 18341325596220639374
23419403 2 17533247320609834153
23559900 14 17910131419149193404
238 59 17973404876825416207
25 1 18265336290430468861
2748010 2 18121798376108407830
34934 24 18337388370410825206
350125 39 17040365077224674285
474 4 18339365261867602051
7471813 234 18270948107420774805
81228 2 18196667202641000274
9981440 41 17192047065726052585

> <PUBCHEM_SHAPE_MULTIPOLES>
485.51
7.78
4.13
1.27
2.84
2.31
-0.09
-2.24
0.99
-1.78
-0.48
1.23
-0.15
-1.4

> <PUBCHEM_SHAPE_SELFOVERLAP>
1031.363

> <PUBCHEM_SHAPE_VOLUME>
275.6

> <PUBCHEM_COORDINATE_TYPE>
2
5
10

$$$$
