24944913
  -OEChem-09132500233D

 54 56  0     0  0  0  0  0  0999 V2000
   -6.7845   -0.0281   -0.4196 Cl  0  0  0  0  0  0  0  0  0  0  0  0
    7.7392    1.0114    1.0431 F  -1  0  0  0  0  0  0  0  0  0  0  0
   -1.8502    1.6821    1.3848 O   0  0  0  0  0  0  0  0  0  0  0  0
    4.7270   -1.6724   -0.0110 O   0  0  0  0  0  0  0  0  0  0  0  0
   -2.9233   -0.8932   -0.1777 N   0  0  0  0  0  0  0  0  0  0  0  0
   -1.0049    3.2655   -0.0824 N   0  0  0  0  0  0  0  0  0  0  0  0
   -1.6302   -2.6275    0.3902 N   0  0  0  0  0  0  0  0  0  0  0  0
   -1.6258   -0.4776   -0.3340 C   0  0  0  0  0  0  0  0  0  0  0  0
   -1.2570    0.8770   -0.7942 C   0  0  0  0  0  0  0  0  0  0  0  0
   -0.8537   -1.5587    0.0205 C   0  0  0  0  0  0  0  0  0  0  0  0
   -2.8741   -2.2118    0.2656 C   0  0  0  0  0  0  0  0  0  0  0  0
   -1.4006    1.9708    0.2723 C   0  0  0  0  0  0  0  0  0  0  0  0
    0.5771   -1.5885    0.0125 C   0  0  0  0  0  0  0  0  0  0  0  0
   -1.0919    4.3929    0.8432 C   0  0  0  0  0  0  0  0  0  0  0  0
   -0.4759    3.5877   -1.4020 C   0  0  0  0  0  0  0  0  0  0  0  0
   -4.1090   -0.1963   -0.3975 C   0  0  0  0  0  0  0  0  0  0  0  0
   -4.1199   -2.8636    0.5002 C   0  0  0  0  0  0  0  0  0  0  0  0
    1.2974   -0.6966    0.8072 C   0  0  0  0  0  0  0  0  0  0  0  0
    1.2514   -2.5089   -0.7899 C   0  0  0  0  0  0  0  0  0  0  0  0
   -5.2780   -0.8195   -0.1732 C   0  0  0  0  0  0  0  0  0  0  0  0
   -5.2732   -2.1991    0.2909 C   0  0  0  0  0  0  0  0  0  0  0  0
   -2.4300    5.0948    0.7384 C   0  0  0  0  0  0  0  0  0  0  0  0
    1.0305    3.4364   -1.4481 C   0  0  0  0  0  0  0  0  0  0  0  0
    3.3661   -1.6455   -0.0030 C   0  0  0  0  0  0  0  0  0  0  0  0
    2.6919   -0.7251    0.7995 C   0  0  0  0  0  0  0  0  0  0  0  0
    2.6459   -2.5374   -0.7977 C   0  0  0  0  0  0  0  0  0  0  0  0
    5.4022   -0.4399    0.2354 C   0  0  0  0  0  0  0  0  0  0  0  0
    6.7412   -0.4594   -0.4883 C   0  0  0  0  0  0  0  0  0  0  0  0
    7.5123    0.8307   -0.2849 C   0  0  0  0  0  0  0  0  0  0  0  0
   -1.8909    1.1433   -1.6481 H   0  0  0  0  0  0  0  0  0  0  0  0
   -0.2266    0.8702   -1.1591 H   0  0  0  0  0  0  0  0  0  0  0  0
   -0.9729    4.0119    1.8638 H   0  0  0  0  0  0  0  0  0  0  0  0
   -0.2676    5.0891    0.6560 H   0  0  0  0  0  0  0  0  0  0  0  0
   -0.9288    2.9524   -2.1667 H   0  0  0  0  0  0  0  0  0  0  0  0
   -0.7565    4.6158   -1.6585 H   0  0  0  0  0  0  0  0  0  0  0  0
   -4.0468    0.8290   -0.7419 H   0  0  0  0  0  0  0  0  0  0  0  0
   -4.1253   -3.8913    0.8461 H   0  0  0  0  0  0  0  0  0  0  0  0
    0.7921    0.0191    1.4513 H   0  0  0  0  0  0  0  0  0  0  0  0
    0.7055   -3.2102   -1.4166 H   0  0  0  0  0  0  0  0  0  0  0  0
   -6.2232   -2.6930    0.4688 H   0  0  0  0  0  0  0  0  0  0  0  0
   -3.2545    4.4057    0.9500 H   0  0  0  0  0  0  0  0  0  0  0  0
   -2.4841    5.9211    1.4538 H   0  0  0  0  0  0  0  0  0  0  0  0
   -2.5878    5.5025   -0.2652 H   0  0  0  0  0  0  0  0  0  0  0  0
    1.3534    2.4260   -1.1819 H   0  0  0  0  0  0  0  0  0  0  0  0
    1.4030    3.6580   -2.4532 H   0  0  0  0  0  0  0  0  0  0  0  0
    1.5165    4.1269   -0.7508 H   0  0  0  0  0  0  0  0  0  0  0  0
    3.2136   -0.0335    1.4544 H   0  0  0  0  0  0  0  0  0  0  0  0
    3.1659   -3.2560   -1.4254 H   0  0  0  0  0  0  0  0  0  0  0  0
    4.8282    0.4161   -0.1430 H   0  0  0  0  0  0  0  0  0  0  0  0
    5.5559   -0.3277    1.3148 H   0  0  0  0  0  0  0  0  0  0  0  0
    6.5843   -0.6399   -1.5581 H   0  0  0  0  0  0  0  0  0  0  0  0
    7.3316   -1.3046   -0.1146 H   0  0  0  0  0  0  0  0  0  0  0  0
    6.9564    1.6968   -0.6557 H   0  0  0  0  0  0  0  0  0  0  0  0
    8.4813    0.7905   -0.7902 H   0  0  0  0  0  0  0  0  0  0  0  0
  1 20  1  0  0  0  0
  2 29  1  0  0  0  0
  3 12  2  0  0  0  0
  4 24  1  0  0  0  0
  4 27  1  0  0  0  0
  5  8  1  0  0  0  0
  5 11  1  0  0  0  0
  5 16  1  0  0  0  0
  6 12  1  0  0  0  0
  6 14  1  0  0  0  0
  6 15  1  0  0  0  0
  7 10  1  0  0  0  0
  7 11  2  0  0  0  0
  8  9  1  0  0  0  0
  8 10  2  0  0  0  0
  9 12  1  0  0  0  0
  9 30  1  0  0  0  0
  9 31  1  0  0  0  0
 10 13  1  0  0  0  0
 11 17  1  0  0  0  0
 13 18  2  0  0  0  0
 13 19  1  0  0  0  0
 14 22  1  0  0  0  0
 14 32  1  0  0  0  0
 14 33  1  0  0  0  0
 15 23  1  0  0  0  0
 15 34  1  0  0  0  0
 15 35  1  0  0  0  0
 16 20  2  0  0  0  0
 16 36  1  0  0  0  0
 17 21  2  0  0  0  0
 17 37  1  0  0  0  0
 18 25  1  0  0  0  0
 18 38  1  0  0  0  0
 19 26  2  0  0  0  0
 19 39  1  0  0  0  0
 20 21  1  0  0  0  0
 21 40  1  0  0  0  0
 22 41  1  0  0  0  0
 22 42  1  0  0  0  0
 22 43  1  0  0  0  0
 23 44  1  0  0  0  0
 23 45  1  0  0  0  0
 23 46  1  0  0  0  0
 24 25  2  0  0  0  0
 24 26  1  0  0  0  0
 25 47  1  0  0  0  0
 26 48  1  0  0  0  0
 27 28  1  0  0  0  0
 27 49  1  0  0  0  0
 27 50  1  0  0  0  0
 28 29  1  0  0  0  0
 28 51  1  0  0  0  0
 28 52  1  0  0  0  0
 29 53  1  0  0  0  0
 29 54  1  0  0  0  0
M  ISO  1   2  18
M  END
> <PUBCHEM_COMPOUND_CID>
24944913

> <PUBCHEM_CONFORMER_RMSD>
1

> <PUBCHEM_CONFORMER_DIVERSEORDER>
1
45
55
38
37
40
64
4
22
54
44
20
71
76
12
70
17
16
47
35
56
49
21
67
36
51
50
43
75
41
9
27
25
57
14
24
33
32
7
3
29
69
39
63
80
6
13
60
78
68
10
15
53
8
26
81
19
2
79
28
65
31
72
23
74
52
61
11
5
18
58
77
66
59
48
42
30
46
73
34
62

> <PUBCHEM_MMFF94_PARTIAL_CHARGES>
33
1 -0.14
10 0.17
11 0.14
12 0.57
13 0.05
14 0.3
15 0.3
16 -0.18
17 -0.11
18 -0.15
19 -0.15
2 -0.34
20 0.14
21 -0.15
24 0.08
25 -0.15
26 -0.15
27 0.28
29 0.34
3 -0.57
36 0.15
37 0.15
38 0.15
39 0.15
4 -0.36
40 0.15
47 0.15
48 0.15
5 0.33
6 -0.66
7 -0.57
8 -0.33
9 0.24

> <PUBCHEM_EFFECTIVE_ROTOR_COUNT>
10

> <PUBCHEM_PHARMACOPHORE_FEATURES>
6
1 3 acceptor
1 4 acceptor
3 5 7 11 cation
5 5 7 8 10 11 rings
6 13 18 19 24 25 26 rings
6 5 11 16 17 20 21 rings

> <PUBCHEM_HEAVY_ATOM_COUNT>
29

> <PUBCHEM_ATOM_DEF_STEREO_COUNT>
0

> <PUBCHEM_ATOM_UDEF_STEREO_COUNT>
0

> <PUBCHEM_BOND_DEF_STEREO_COUNT>
0

> <PUBCHEM_BOND_UDEF_STEREO_COUNT>
0

> <PUBCHEM_ISOTOPIC_ATOM_COUNT>
1

> <PUBCHEM_COMPONENT_COUNT>
1

> <PUBCHEM_CACTVS_TAUTO_COUNT>
1

> <PUBCHEM_CONFORMER_ID>
017CA11100000001

> <PUBCHEM_MMFF94_ENERGY>
65.6006

> <PUBCHEM_FEATURE_SELFOVERLAP>
30.563

> <PUBCHEM_SHAPE_FINGERPRINT>
10006869 2 17905035960163688731
10050765 1 18196093231949963374
10369192 42 17275107258697286702
10670039 82 18336561430535142630
1100329 8 18338242557823220097
11578080 2 14475583425427484819
12160290 23 17834641961008579653
12166972 35 17603868957336855918
12788726 201 18335697192056009611
13383665 225 18267326260732770564
140371 6 18338245886058572551
14068700 686 18271530793139831046
14790565 3 17547859546797019593
14955137 171 18195247943250681547
15131766 46 15408610472495241594
15419008 145 18262503825162866000
15961568 22 18409452488335219182
16087824 20 18339081476911279257
17980427 23 17703522030206143819
18336668 15 18040999578767043797
18681886 176 18268705189573739914
19611394 137 17971203765942211674
20642791 13 18339928091319391621
21344244 246 17836914964949465007
21796203 349 17903671757669682971
23559900 14 18338792420546748731
23845131 108 17400366642537951249
249057 25 17895203165205262110
25019877 29 17632583798771455054
27425 322 17406550312579884637
283562 15 18337107844300367555
3298306 158 17832998513184383117
335352 9 18409162226246077255
350125 39 18341894104315045698
469060 322 18335430036484244568
57527585 21 18056737867621196644
6442390 28 17546173995871993837
7226269 152 18334293137572689131
7808743 9 18194402187186857488

> <PUBCHEM_SHAPE_MULTIPOLES>
564.72
14.8
5.5
1.04
22.33
8.67
-0.07
-4.86
0.49
-4.17
0.26
0.17
0.67
0.01

> <PUBCHEM_SHAPE_SELFOVERLAP>
1187.461

> <PUBCHEM_SHAPE_VOLUME>
320.9

> <PUBCHEM_COORDINATE_TYPE>
2
5
10

$$$$
