A3_meeko_out
     RDKit          3D

 56 59  0  0  0  0  0  0  0  0999 V2000
    3.7340   17.8600    7.7970 C   0  0  0  0  0  0  0  0  0  0  0  0
    3.6320   16.4660    8.3990 C   0  0  0  0  0  0  0  0  0  0  0  0
    4.4270   15.4920    7.6520 N   0  0  0  0  0  0  0  0  0  0  0  0
    4.2730   15.4950    6.1960 C   0  0  0  0  0  0  0  0  0  0  0  0
    3.0350   14.7390    5.7700 C   0  0  0  0  0  0  0  0  0  0  0  0
    3.0640   13.3400    5.6570 C   0  0  0  0  0  0  0  0  0  0  0  0
    1.9270   12.6350    5.2560 C   0  0  0  0  0  0  0  0  0  0  0  0
    0.7500   13.3210    4.9640 C   0  0  0  0  0  0  0  0  0  0  0  0
    0.7080   14.7100    5.0730 C   0  0  0  0  0  0  0  0  0  0  0  0
    1.8440   15.4170    5.4740 C   0  0  0  0  0  0  0  0  0  0  0  0
    5.2360   14.5150    8.2220 C   0  0  0  0  0  0  0  0  0  0  0  0
    4.7550   13.5750    8.8650 O   0  0  0  0  0  0  0  0  0  0  0  0
    6.7560   14.6100    8.0630 C   0  0  0  0  0  0  0  0  0  0  0  0
    7.3220   13.3850    7.5530 N   0  0  0  0  0  0  0  0  0  0  0  0
    7.9270   12.3840    8.3320 C   0  0  0  0  0  0  0  0  0  0  0  0
    7.9600   12.2980    9.5470 O   0  0  0  0  0  0  0  0  0  0  0  0
    8.5180   11.4790    7.4270 N   0  0  0  0  0  0  0  0  0  0  0  0
    9.3510   10.3620    7.8180 C   0  0  0  0  0  0  0  0  0  0  0  0
    8.6800    8.9990    7.6830 C   0  0  0  0  0  0  0  0  0  0  0  0
    7.4140    9.0460    8.1580 F   0  0  0  0  0  0  0  0  0  0  0  0
    8.6040    8.6330    6.3820 F   0  0  0  0  0  0  0  0  0  0  0  0
    9.3350    8.0290    8.3480 F   0  0  0  0  0  0  0  0  0  0  0  0
    8.3770   12.0030    6.1400 C   0  0  0  0  0  0  0  0  0  0  0  0
    8.8120   11.6200    4.9120 C   0  0  0  0  0  0  0  0  0  0  0  0
    8.5280   12.3610    3.8180 N   0  0  0  0  0  0  0  0  0  0  0  0
    7.8110   13.5080    3.9890 C   0  0  0  0  0  0  0  0  0  0  0  0
    7.5010   14.3100    2.7860 C   0  0  0  0  0  0  0  0  0  0  0  0
    7.3240   15.7060    2.8580 C   0  0  0  0  0  0  0  0  0  0  0  0
    7.0330   16.4660    1.7210 C   0  0  0  0  0  0  0  0  0  0  0  0
    6.9120   15.8480    0.4800 C   0  0  0  0  0  0  0  0  0  0  0  0
    7.0810   14.4710    0.3770 C   0  0  0  0  0  0  0  0  0  0  0  0
    7.3720   13.7130    1.5160 C   0  0  0  0  0  0  0  0  0  0  0  0
    7.3520   13.9600    5.1770 N   0  0  0  0  0  0  0  0  0  0  0  0
    7.6550   13.1760    6.2100 C   0  0  0  0  0  0  0  0  0  0  0  0
    3.7885   18.6050    8.6045 H   0  0  0  0  0  0  0  0  0  0  0  0
    4.6394   17.9257    7.1757 H   0  0  0  0  0  0  0  0  0  0  0  0
    2.8479   18.0568    7.1757 H   0  0  0  0  0  0  0  0  0  0  0  0
    3.9936   16.4993    9.4373 H   0  0  0  0  0  0  0  0  0  0  0  0
    2.5787   16.1517    8.3569 H   0  0  0  0  0  0  0  0  0  0  0  0
    4.1950   16.5351    5.8466 H   0  0  0  0  0  0  0  0  0  0  0  0
    5.1501   14.9993    5.7544 H   0  0  0  0  0  0  0  0  0  0  0  0
    3.9909   12.7939    5.8864 H   0  0  0  0  0  0  0  0  0  0  0  0
    1.9607   11.5388    5.1708 H   0  0  0  0  0  0  0  0  0  0  0  0
   -0.1458   12.7666    4.6475 H   0  0  0  0  0  0  0  0  0  0  0  0
   -0.2219   15.2506    4.8427 H   0  0  0  0  0  0  0  0  0  0  0  0
    1.8039   16.5130    5.5581 H   0  0  0  0  0  0  0  0  0  0  0  0
    6.9900   15.4273    7.3650 H   0  0  0  0  0  0  0  0  0  0  0  0
    7.1910   14.7988    9.0555 H   0  0  0  0  0  0  0  0  0  0  0  0
   10.2515   10.3664    7.1862 H   0  0  0  0  0  0  0  0  0  0  0  0
    9.5765   10.4969    8.8862 H   0  0  0  0  0  0  0  0  0  0  0  0
    9.4015   10.6973    4.8066 H   0  0  0  0  0  0  0  0  0  0  0  0
    7.4169   16.2097    3.8315 H   0  0  0  0  0  0  0  0  0  0  0  0
    6.8995   17.5544    1.8076 H   0  0  0  0  0  0  0  0  0  0  0  0
    6.6839   16.4454   -0.4151 H   0  0  0  0  0  0  0  0  0  0  0  0
    6.9857   13.9776   -0.6015 H   0  0  0  0  0  0  0  0  0  0  0  0
    7.5032   12.6253    1.4181 H   0  0  0  0  0  0  0  0  0  0  0  0
  1  2  1  0
  2  3  1  0
  3  4  1  0
  4  5  1  0
  5  6  2  0
  6  7  1  0
  7  8  2  0
  8  9  1  0
  9 10  2  0
  3 11  1  0
 11 12  2  0
 11 13  1  0
 13 14  1  0
 14 15  1  0
 15 16  2  0
 15 17  1  0
 17 18  1  0
 18 19  1  0
 19 20  1  0
 19 21  1  0
 19 22  1  0
 17 23  1  0
 23 24  2  0
 24 25  1  0
 25 26  2  0
 26 27  1  0
 27 28  2  0
 28 29  1  0
 29 30  2  0
 30 31  1  0
 31 32  2  0
 26 33  1  0
 33 34  2  0
 10  5  1  0
 34 14  1  0
 34 23  1  0
 32 27  1  0
  1 35  1  0
  1 36  1  0
  1 37  1  0
  2 38  1  0
  2 39  1  0
  4 40  1  0
  4 41  1  0
  6 42  1  0
  7 43  1  0
  8 44  1  0
  9 45  1  0
 10 46  1  0
 13 47  1  0
 13 48  1  0
 18 49  1  0
 18 50  1  0
 24 51  1  0
 28 52  1  0
 29 53  1  0
 30 54  1  0
 31 55  1  0
 32 56  1  0
M  END
>  <meeko>  (1) 
{"is_sidechain": [false], "free_energy": -6.478, "intermolecular_energy": -9.886, "internal_energy": -1.901}

$$$$
A3_meeko_out
     RDKit          3D

 56 59  0  0  0  0  0  0  0  0999 V2000
    5.3850   17.5440    5.4240 C   0  0  0  0  0  0  0  0  0  0  0  0
    5.6120   16.1210    4.9380 C   0  0  0  0  0  0  0  0  0  0  0  0
    5.5240   15.1530    6.0290 N   0  0  0  0  0  0  0  0  0  0  0  0
    4.3380   15.2310    6.8840 C   0  0  0  0  0  0  0  0  0  0  0  0
    3.1130   14.6890    6.1810 C   0  0  0  0  0  0  0  0  0  0  0  0
    2.0610   15.5500    5.8290 C   0  0  0  0  0  0  0  0  0  0  0  0
    0.9240   15.0570    5.1880 C   0  0  0  0  0  0  0  0  0  0  0  0
    0.8260   13.6990    4.8910 C   0  0  0  0  0  0  0  0  0  0  0  0
    1.8640   12.8340    5.2340 C   0  0  0  0  0  0  0  0  0  0  0  0
    3.0020   13.3260    5.8760 C   0  0  0  0  0  0  0  0  0  0  0  0
    6.5150   14.2370    6.3690 C   0  0  0  0  0  0  0  0  0  0  0  0
    7.4690   14.5570    7.0860 O   0  0  0  0  0  0  0  0  0  0  0  0
    6.4310   12.8050    5.8320 C   0  0  0  0  0  0  0  0  0  0  0  0
    7.7310   12.2780    5.4990 N   0  0  0  0  0  0  0  0  0  0  0  0
    8.6340   11.7070    6.4140 C   0  0  0  0  0  0  0  0  0  0  0  0
    8.4410   11.4320    7.5840 O   0  0  0  0  0  0  0  0  0  0  0  0
    9.8430   11.5200    5.7130 N   0  0  0  0  0  0  0  0  0  0  0  0
   11.0760   11.0670    6.3210 C   0  0  0  0  0  0  0  0  0  0  0  0
   11.3920    9.5940    6.0810 C   0  0  0  0  0  0  0  0  0  0  0  0
   10.2580    8.8570    6.1080 F   0  0  0  0  0  0  0  0  0  0  0  0
   11.9510    9.4200    4.8600 F   0  0  0  0  0  0  0  0  0  0  0  0
   12.2380    9.0880    6.9990 F   0  0  0  0  0  0  0  0  0  0  0  0
    9.6990   12.0870    4.4450 C   0  0  0  0  0  0  0  0  0  0  0  0
   10.5380   12.2760    3.3930 C   0  0  0  0  0  0  0  0  0  0  0  0
   10.1090   12.8920    2.2710 N   0  0  0  0  0  0  0  0  0  0  0  0
    8.8190   13.3320    2.2340 C   0  0  0  0  0  0  0  0  0  0  0  0
    8.3560   14.0010    0.9990 C   0  0  0  0  0  0  0  0  0  0  0  0
    7.0070   13.9540    0.5980 C   0  0  0  0  0  0  0  0  0  0  0  0
    6.5670   14.5870   -0.5690 C   0  0  0  0  0  0  0  0  0  0  0  0
    7.4680   15.2870   -1.3650 C   0  0  0  0  0  0  0  0  0  0  0  0
    8.8080   15.3520   -0.9950 C   0  0  0  0  0  0  0  0  0  0  0  0
    9.2440   14.7170    0.1720 C   0  0  0  0  0  0  0  0  0  0  0  0
    7.9280   13.1910    3.2410 N   0  0  0  0  0  0  0  0  0  0  0  0
    8.4120   12.5640    4.3100 C   0  0  0  0  0  0  0  0  0  0  0  0
    5.3825   17.5598    6.5239 H   0  0  0  0  0  0  0  0  0  0  0  0
    6.1911   18.1922    5.0498 H   0  0  0  0  0  0  0  0  0  0  0  0
    4.4172   17.9093    5.0498 H   0  0  0  0  0  0  0  0  0  0  0  0
    4.8498   15.8769    4.1834 H   0  0  0  0  0  0  0  0  0  0  0  0
    6.6243   16.0634    4.5115 H   0  0  0  0  0  0  0  0  0  0  0  0
    4.5158   14.6435    7.7968 H   0  0  0  0  0  0  0  0  0  0  0  0
    4.1570   16.2881    7.1286 H   0  0  0  0  0  0  0  0  0  0  0  0
    2.1340   16.6228    6.0607 H   0  0  0  0  0  0  0  0  0  0  0  0
    0.1053   15.7400    4.9172 H   0  0  0  0  0  0  0  0  0  0  0  0
   -0.0703   13.3097    4.3860 H   0  0  0  0  0  0  0  0  0  0  0  0
    1.7864   11.7623    4.9985 H   0  0  0  0  0  0  0  0  0  0  0  0
    3.8176   12.6384    6.1444 H   0  0  0  0  0  0  0  0  0  0  0  0
    5.9734   12.1637    6.5997 H   0  0  0  0  0  0  0  0  0  0  0  0
    5.8244   12.8203    4.9145 H   0  0  0  0  0  0  0  0  0  0  0  0
   11.9022   11.6673    5.9122 H   0  0  0  0  0  0  0  0  0  0  0  0
   10.9542   11.1894    7.4074 H   0  0  0  0  0  0  0  0  0  0  0  0
   11.5780   11.9233    3.4563 H   0  0  0  0  0  0  0  0  0  0  0  0
    6.2817   13.4062    1.2176 H   0  0  0  0  0  0  0  0  0  0  0  0
    5.5071   14.5313   -0.8578 H   0  0  0  0  0  0  0  0  0  0  0  0
    7.1230   15.7866   -2.2823 H   0  0  0  0  0  0  0  0  0  0  0  0
    9.5248   15.9034   -1.6212 H   0  0  0  0  0  0  0  0  0  0  0  0
   10.3062   14.7779    0.4512 H   0  0  0  0  0  0  0  0  0  0  0  0
  1  2  1  0
  2  3  1  0
  3  4  1  0
  4  5  1  0
  5  6  2  0
  6  7  1  0
  7  8  2  0
  8  9  1  0
  9 10  2  0
  3 11  1  0
 11 12  2  0
 11 13  1  0
 13 14  1  0
 14 15  1  0
 15 16  2  0
 15 17  1  0
 17 18  1  0
 18 19  1  0
 19 20  1  0
 19 21  1  0
 19 22  1  0
 17 23  1  0
 23 24  2  0
 24 25  1  0
 25 26  2  0
 26 27  1  0
 27 28  2  0
 28 29  1  0
 29 30  2  0
 30 31  1  0
 31 32  2  0
 26 33  1  0
 33 34  2  0
 10  5  1  0
 34 14  1  0
 34 23  1  0
 32 27  1  0
  1 35  1  0
  1 36  1  0
  1 37  1  0
  2 38  1  0
  2 39  1  0
  4 40  1  0
  4 41  1  0
  6 42  1  0
  7 43  1  0
  8 44  1  0
  9 45  1  0
 10 46  1  0
 13 47  1  0
 13 48  1  0
 18 49  1  0
 18 50  1  0
 24 51  1  0
 28 52  1  0
 29 53  1  0
 30 54  1  0
 31 55  1  0
 32 56  1  0
M  END
>  <meeko>  (2) 
{"is_sidechain": [false], "free_energy": -6.14, "intermolecular_energy": -9.748, "internal_energy": -1.524}

$$$$
A3_meeko_out
     RDKit          3D

 56 59  0  0  0  0  0  0  0  0999 V2000
    3.6050   13.7250    9.1680 C   0  0  0  0  0  0  0  0  0  0  0  0
    3.9890   15.0640    8.5560 C   0  0  0  0  0  0  0  0  0  0  0  0
    4.8240   14.8990    7.3680 N   0  0  0  0  0  0  0  0  0  0  0  0
    4.2980   15.4400    6.1130 C   0  0  0  0  0  0  0  0  0  0  0  0
    2.9950   14.7760    5.7280 C   0  0  0  0  0  0  0  0  0  0  0  0
    2.9370   13.3860    5.5400 C   0  0  0  0  0  0  0  0  0  0  0  0
    1.7400   12.7680    5.1760 C   0  0  0  0  0  0  0  0  0  0  0  0
    0.5880   13.5310    4.9980 C   0  0  0  0  0  0  0  0  0  0  0  0
    0.6320   14.9120    5.1830 C   0  0  0  0  0  0  0  0  0  0  0  0
    1.8280   15.5330    5.5460 C   0  0  0  0  0  0  0  0  0  0  0  0
    6.0220   14.1930    7.3240 C   0  0  0  0  0  0  0  0  0  0  0  0
    6.9250   14.4050    8.1400 O   0  0  0  0  0  0  0  0  0  0  0  0
    6.2340   13.1390    6.2330 C   0  0  0  0  0  0  0  0  0  0  0  0
    7.6210   13.0270    5.8550 N   0  0  0  0  0  0  0  0  0  0  0  0
    8.2330   13.7220    4.7970 C   0  0  0  0  0  0  0  0  0  0  0  0
    7.7630   14.6170    4.1190 O   0  0  0  0  0  0  0  0  0  0  0  0
    9.5210   13.1670    4.6500 N   0  0  0  0  0  0  0  0  0  0  0  0
   10.4420   13.5150    3.5900 C   0  0  0  0  0  0  0  0  0  0  0  0
   10.2170   12.7540    2.2870 C   0  0  0  0  0  0  0  0  0  0  0  0
   10.6010   13.5050    1.2290 F   0  0  0  0  0  0  0  0  0  0  0  0
   10.9610   11.6230    2.2620 F   0  0  0  0  0  0  0  0  0  0  0  0
    8.9290   12.4070    2.1020 F   0  0  0  0  0  0  0  0  0  0  0  0
    9.6230   12.0780    5.5180 C   0  0  0  0  0  0  0  0  0  0  0  0
   10.5760   11.1380    5.7460 C   0  0  0  0  0  0  0  0  0  0  0  0
   10.3800   10.1650    6.6630 N   0  0  0  0  0  0  0  0  0  0  0  0
    9.1950   10.1480    7.3360 C   0  0  0  0  0  0  0  0  0  0  0  0
    8.9910    9.0820    8.3410 C   0  0  0  0  0  0  0  0  0  0  0  0
   10.0350    8.2140    8.7140 C   0  0  0  0  0  0  0  0  0  0  0  0
    9.8450    7.2070    9.6660 C   0  0  0  0  0  0  0  0  0  0  0  0
    8.6020    7.0440   10.2700 C   0  0  0  0  0  0  0  0  0  0  0  0
    7.5510    7.8860    9.9230 C   0  0  0  0  0  0  0  0  0  0  0  0
    7.7450    8.8920    8.9710 C   0  0  0  0  0  0  0  0  0  0  0  0
    8.1950   11.0400    7.1590 N   0  0  0  0  0  0  0  0  0  0  0  0
    8.4600   11.9790    6.2520 C   0  0  0  0  0  0  0  0  0  0  0  0
    3.6275   13.8033   10.2650 H   0  0  0  0  0  0  0  0  0  0  0  0
    2.5916   13.4494    8.8407 H   0  0  0  0  0  0  0  0  0  0  0  0
    4.3183   12.9542    8.8407 H   0  0  0  0  0  0  0  0  0  0  0  0
    3.0722   15.6028    8.2746 H   0  0  0  0  0  0  0  0  0  0  0  0
    4.5660   15.6283    9.3034 H   0  0  0  0  0  0  0  0  0  0  0  0
    4.1274   16.5201    6.2327 H   0  0  0  0  0  0  0  0  0  0  0  0
    5.0330   15.2462    5.3179 H   0  0  0  0  0  0  0  0  0  0  0  0
    3.8432   12.7786    5.6809 H   0  0  0  0  0  0  0  0  0  0  0  0
    1.7060   11.6783    5.0296 H   0  0  0  0  0  0  0  0  0  0  0  0
   -0.3558   13.0440    4.7116 H   0  0  0  0  0  0  0  0  0  0  0  0
   -0.2781   15.5137    5.0425 H   0  0  0  0  0  0  0  0  0  0  0  0
    1.8558   16.6231    5.6903 H   0  0  0  0  0  0  0  0  0  0  0  0
    5.8879   12.1645    6.6081 H   0  0  0  0  0  0  0  0  0  0  0  0
    5.6629   13.4481    5.3452 H   0  0  0  0  0  0  0  0  0  0  0  0
   10.3384   14.5904    3.3830 H   0  0  0  0  0  0  0  0  0  0  0  0
   11.4471   13.2423    3.9442 H   0  0  0  0  0  0  0  0  0  0  0  0
   11.5176   11.1689    5.1782 H   0  0  0  0  0  0  0  0  0  0  0  0
   11.0235    8.3306    8.2456 H   0  0  0  0  0  0  0  0  0  0  0  0
   10.6791    6.5432    9.9375 H   0  0  0  0  0  0  0  0  0  0  0  0
    8.4514    6.2524   11.0188 H   0  0  0  0  0  0  0  0  0  0  0  0
    6.5666    7.7607   10.3975 H   0  0  0  0  0  0  0  0  0  0  0  0
    6.9045    9.5509    8.7076 H   0  0  0  0  0  0  0  0  0  0  0  0
  1  2  1  0
  2  3  1  0
  3  4  1  0
  4  5  1  0
  5  6  2  0
  6  7  1  0
  7  8  2  0
  8  9  1  0
  9 10  2  0
  3 11  1  0
 11 12  2  0
 11 13  1  0
 13 14  1  0
 14 15  1  0
 15 16  2  0
 15 17  1  0
 17 18  1  0
 18 19  1  0
 19 20  1  0
 19 21  1  0
 19 22  1  0
 17 23  1  0
 23 24  2  0
 24 25  1  0
 25 26  2  0
 26 27  1  0
 27 28  2  0
 28 29  1  0
 29 30  2  0
 30 31  1  0
 31 32  2  0
 26 33  1  0
 33 34  2  0
 10  5  1  0
 34 14  1  0
 34 23  1  0
 32 27  1  0
  1 35  1  0
  1 36  1  0
  1 37  1  0
  2 38  1  0
  2 39  1  0
  4 40  1  0
  4 41  1  0
  6 42  1  0
  7 43  1  0
  8 44  1  0
  9 45  1  0
 10 46  1  0
 13 47  1  0
 13 48  1  0
 18 49  1  0
 18 50  1  0
 24 51  1  0
 28 52  1  0
 29 53  1  0
 30 54  1  0
 31 55  1  0
 32 56  1  0
M  END
>  <meeko>  (3) 
{"is_sidechain": [false], "free_energy": -6.085, "intermolecular_energy": -9.693, "internal_energy": -1.494}

$$$$
A3_meeko_out
     RDKit          3D

 56 59  0  0  0  0  0  0  0  0999 V2000
    6.9990   15.1870    0.2630 C   0  0  0  0  0  0  0  0  0  0  0  0
    7.0570   13.9390    1.1310 C   0  0  0  0  0  0  0  0  0  0  0  0
    8.0740   14.0510    2.1760 N   0  0  0  0  0  0  0  0  0  0  0  0
    8.5820   15.3950    2.4590 C   0  0  0  0  0  0  0  0  0  0  0  0
    8.0210   15.9360    3.7550 C   0  0  0  0  0  0  0  0  0  0  0  0
    8.8430   16.0540    4.8870 C   0  0  0  0  0  0  0  0  0  0  0  0
    8.3310   16.5450    6.0890 C   0  0  0  0  0  0  0  0  0  0  0  0
    6.9930   16.9250    6.1720 C   0  0  0  0  0  0  0  0  0  0  0  0
    6.1670   16.8140    5.0550 C   0  0  0  0  0  0  0  0  0  0  0  0
    6.6770   16.3230    3.8520 C   0  0  0  0  0  0  0  0  0  0  0  0
    8.6540   12.9790    2.8460 C   0  0  0  0  0  0  0  0  0  0  0  0
    9.8410   12.6790    2.6770 O   0  0  0  0  0  0  0  0  0  0  0  0
    7.8020   12.1400    3.8040 C   0  0  0  0  0  0  0  0  0  0  0  0
    7.8520   12.6470    5.1530 N   0  0  0  0  0  0  0  0  0  0  0  0
    8.9170   12.4590    6.0510 C   0  0  0  0  0  0  0  0  0  0  0  0
   10.0110   11.9750    5.8250 O   0  0  0  0  0  0  0  0  0  0  0  0
    8.4690   12.9310    7.3020 N   0  0  0  0  0  0  0  0  0  0  0  0
    9.2170   12.8100    8.5350 C   0  0  0  0  0  0  0  0  0  0  0  0
    8.8700   11.5770    9.3630 C   0  0  0  0  0  0  0  0  0  0  0  0
    7.9900   11.8960   10.3400 F   0  0  0  0  0  0  0  0  0  0  0  0
    8.2820   10.6350    8.5900 F   0  0  0  0  0  0  0  0  0  0  0  0
    9.9500   11.0210    9.9450 F   0  0  0  0  0  0  0  0  0  0  0  0
    7.1210   13.2740    7.1760 C   0  0  0  0  0  0  0  0  0  0  0  0
    6.1690   13.6970    8.0470 C   0  0  0  0  0  0  0  0  0  0  0  0
    4.9070   13.9370    7.6270 N   0  0  0  0  0  0  0  0  0  0  0  0
    4.6190   13.7240    6.3120 C   0  0  0  0  0  0  0  0  0  0  0  0
    3.2370   13.9940    5.8590 C   0  0  0  0  0  0  0  0  0  0  0  0
    2.7120   15.3000    5.8350 C   0  0  0  0  0  0  0  0  0  0  0  0
    1.4060   15.5570    5.4070 C   0  0  0  0  0  0  0  0  0  0  0  0
    0.5900   14.5110    4.9880 C   0  0  0  0  0  0  0  0  0  0  0  0
    1.0800   13.2090    5.0000 C   0  0  0  0  0  0  0  0  0  0  0  0
    2.3870   12.9550    5.4300 C   0  0  0  0  0  0  0  0  0  0  0  0
    5.5070   13.2950    5.3870 N   0  0  0  0  0  0  0  0  0  0  0  0
    6.7330   13.0920    5.8660 C   0  0  0  0  0  0  0  0  0  0  0  0
    6.9575   16.0789    0.9055 H   0  0  0  0  0  0  0  0  0  0  0  0
    7.8959   15.2339   -0.3721 H   0  0  0  0  0  0  0  0  0  0  0  0
    6.1016   15.1506   -0.3721 H   0  0  0  0  0  0  0  0  0  0  0  0
    6.0754   13.7884    1.6041 H   0  0  0  0  0  0  0  0  0  0  0  0
    7.3206   13.0868    0.4873 H   0  0  0  0  0  0  0  0  0  0  0  0
    9.6788   15.3547    2.5331 H   0  0  0  0  0  0  0  0  0  0  0  0
    8.2699   16.0620    1.6418 H   0  0  0  0  0  0  0  0  0  0  0  0
    9.9003   15.7567    4.8260 H   0  0  0  0  0  0  0  0  0  0  0  0
    8.9834   16.6319    6.9704 H   0  0  0  0  0  0  0  0  0  0  0  0
    6.5888   17.3125    7.1188 H   0  0  0  0  0  0  0  0  0  0  0  0
    5.1108   17.1140    5.1215 H   0  0  0  0  0  0  0  0  0  0  0  0
    6.0198   16.2391    2.9739 H   0  0  0  0  0  0  0  0  0  0  0  0
    6.7582   12.1546    3.4571 H   0  0  0  0  0  0  0  0  0  0  0  0
    8.2039   11.1161    3.8097 H   0  0  0  0  0  0  0  0  0  0  0  0
   10.2874   12.7669    8.2854 H   0  0  0  0  0  0  0  0  0  0  0  0
    8.9551   13.6846    9.1486 H   0  0  0  0  0  0  0  0  0  0  0  0
    6.4277   13.8459    9.1057 H   0  0  0  0  0  0  0  0  0  0  0  0
    3.3447   16.1387    6.1609 H   0  0  0  0  0  0  0  0  0  0  0  0
    1.0230   16.5881    5.4016 H   0  0  0  0  0  0  0  0  0  0  0  0
   -0.4369   14.7123    4.6491 H   0  0  0  0  0  0  0  0  0  0  0  0
    0.4389   12.3779    4.6709 H   0  0  0  0  0  0  0  0  0  0  0  0
    2.7598   11.9201    5.4333 H   0  0  0  0  0  0  0  0  0  0  0  0
  1  2  1  0
  2  3  1  0
  3  4  1  0
  4  5  1  0
  5  6  2  0
  6  7  1  0
  7  8  2  0
  8  9  1  0
  9 10  2  0
  3 11  1  0
 11 12  2  0
 11 13  1  0
 13 14  1  0
 14 15  1  0
 15 16  2  0
 15 17  1  0
 17 18  1  0
 18 19  1  0
 19 20  1  0
 19 21  1  0
 19 22  1  0
 17 23  1  0
 23 24  2  0
 24 25  1  0
 25 26  2  0
 26 27  1  0
 27 28  2  0
 28 29  1  0
 29 30  2  0
 30 31  1  0
 31 32  2  0
 26 33  1  0
 33 34  2  0
 10  5  1  0
 34 14  1  0
 34 23  1  0
 32 27  1  0
  1 35  1  0
  1 36  1  0
  1 37  1  0
  2 38  1  0
  2 39  1  0
  4 40  1  0
  4 41  1  0
  6 42  1  0
  7 43  1  0
  8 44  1  0
  9 45  1  0
 10 46  1  0
 13 47  1  0
 13 48  1  0
 18 49  1  0
 18 50  1  0
 24 51  1  0
 28 52  1  0
 29 53  1  0
 30 54  1  0
 31 55  1  0
 32 56  1  0
M  END
>  <meeko>  (4) 
{"is_sidechain": [false], "free_energy": -6.071, "intermolecular_energy": -8.287, "internal_energy": -2.88}

$$$$
A3_meeko_out
     RDKit          3D

 56 59  0  0  0  0  0  0  0  0999 V2000
    6.3500   15.7900    5.0990 C   0  0  0  0  0  0  0  0  0  0  0  0
    5.5680   15.8690    6.4010 C   0  0  0  0  0  0  0  0  0  0  0  0
    5.1770   14.5440    6.8800 N   0  0  0  0  0  0  0  0  0  0  0  0
    4.5840   13.6360    5.8970 C   0  0  0  0  0  0  0  0  0  0  0  0
    3.1340   13.9740    5.6360 C   0  0  0  0  0  0  0  0  0  0  0  0
    2.6830   15.2980    5.7600 C   0  0  0  0  0  0  0  0  0  0  0  0
    1.3440   15.6170    5.5280 C   0  0  0  0  0  0  0  0  0  0  0  0
    0.4420   14.6170    5.1700 C   0  0  0  0  0  0  0  0  0  0  0  0
    0.8780   13.2990    5.0430 C   0  0  0  0  0  0  0  0  0  0  0  0
    2.2160   12.9780    5.2740 C   0  0  0  0  0  0  0  0  0  0  0  0
    5.2400   14.1220    8.2040 C   0  0  0  0  0  0  0  0  0  0  0  0
    4.2150   13.8980    8.8580 O   0  0  0  0  0  0  0  0  0  0  0  0
    6.6060   13.9430    8.8730 C   0  0  0  0  0  0  0  0  0  0  0  0
    7.0570   12.5740    8.8190 N   0  0  0  0  0  0  0  0  0  0  0  0
    7.2210   11.7290    9.9300 C   0  0  0  0  0  0  0  0  0  0  0  0
    6.8920   11.9370   11.0840 O   0  0  0  0  0  0  0  0  0  0  0  0
    7.8670   10.5690    9.4550 N   0  0  0  0  0  0  0  0  0  0  0  0
    8.3340    9.4920   10.3000 C   0  0  0  0  0  0  0  0  0  0  0  0
    7.5940    8.1730   10.1060 C   0  0  0  0  0  0  0  0  0  0  0  0
    8.4620    7.1850    9.7870 F   0  0  0  0  0  0  0  0  0  0  0  0
    6.9730    7.8020   11.2500 F   0  0  0  0  0  0  0  0  0  0  0  0
    6.6650    8.2360    9.1330 F   0  0  0  0  0  0  0  0  0  0  0  0
    8.1960   10.7780    8.1140 C   0  0  0  0  0  0  0  0  0  0  0  0
    8.8820   10.0610    7.1870 C   0  0  0  0  0  0  0  0  0  0  0  0
    9.0620   10.5430    5.9370 N   0  0  0  0  0  0  0  0  0  0  0  0
    8.5500   11.7710    5.6440 C   0  0  0  0  0  0  0  0  0  0  0  0
    8.7470   12.2880    4.2720 C   0  0  0  0  0  0  0  0  0  0  0  0
   10.0250   12.3410    3.6830 C   0  0  0  0  0  0  0  0  0  0  0  0
   10.2140   12.8280    2.3860 C   0  0  0  0  0  0  0  0  0  0  0  0
    9.1250   13.2730    1.6420 C   0  0  0  0  0  0  0  0  0  0  0  0
    7.8500   13.2320    2.1960 C   0  0  0  0  0  0  0  0  0  0  0  0
    7.6650   12.7450    3.4950 C   0  0  0  0  0  0  0  0  0  0  0  0
    7.8650   12.5490    6.5120 N   0  0  0  0  0  0  0  0  0  0  0  0
    7.7130   12.0080    7.7200 C   0  0  0  0  0  0  0  0  0  0  0  0
    7.4219   15.6817    5.3211 H   0  0  0  0  0  0  0  0  0  0  0  0
    6.0066   14.9220    4.5171 H   0  0  0  0  0  0  0  0  0  0  0  0
    6.1871   16.7092    4.5171 H   0  0  0  0  0  0  0  0  0  0  0  0
    6.1950   16.3530    7.1643 H   0  0  0  0  0  0  0  0  0  0  0  0
    4.6524   16.4498    6.2156 H   0  0  0  0  0  0  0  0  0  0  0  0
    5.1448   13.7143    4.9539 H   0  0  0  0  0  0  0  0  0  0  0  0
    4.6335   12.6128    6.2978 H   0  0  0  0  0  0  0  0  0  0  0  0
    3.3912   16.0909    6.0425 H   0  0  0  0  0  0  0  0  0  0  0  0
    1.0010   16.6574    5.6277 H   0  0  0  0  0  0  0  0  0  0  0  0
   -0.6135   14.8675    4.9877 H   0  0  0  0  0  0  0  0  0  0  0  0
    0.1655   12.5102    4.7600 H   0  0  0  0  0  0  0  0  0  0  0  0
    2.5531   11.9360    5.1714 H   0  0  0  0  0  0  0  0  0  0  0  0
    7.3403   14.5797    8.3578 H   0  0  0  0  0  0  0  0  0  0  0  0
    6.5069   14.2274    9.9310 H   0  0  0  0  0  0  0  0  0  0  0  0
    9.3996    9.3235   10.0852 H   0  0  0  0  0  0  0  0  0  0  0  0
    8.1502    9.8053   11.3383 H   0  0  0  0  0  0  0  0  0  0  0  0
    9.2955    9.0778    7.4561 H   0  0  0  0  0  0  0  0  0  0  0  0
   10.8955   11.9909    4.2571 H   0  0  0  0  0  0  0  0  0  0  0  0
   11.2247   12.8595    1.9530 H   0  0  0  0  0  0  0  0  0  0  0  0
    9.2721   13.6552    0.6211 H   0  0  0  0  0  0  0  0  0  0  0  0
    6.9860   13.5827    1.6125 H   0  0  0  0  0  0  0  0  0  0  0  0
    6.6504   12.7186    3.9191 H   0  0  0  0  0  0  0  0  0  0  0  0
  1  2  1  0
  2  3  1  0
  3  4  1  0
  4  5  1  0
  5  6  2  0
  6  7  1  0
  7  8  2  0
  8  9  1  0
  9 10  2  0
  3 11  1  0
 11 12  2  0
 11 13  1  0
 13 14  1  0
 14 15  1  0
 15 16  2  0
 15 17  1  0
 17 18  1  0
 18 19  1  0
 19 20  1  0
 19 21  1  0
 19 22  1  0
 17 23  1  0
 23 24  2  0
 24 25  1  0
 25 26  2  0
 26 27  1  0
 27 28  2  0
 28 29  1  0
 29 30  2  0
 30 31  1  0
 31 32  2  0
 26 33  1  0
 33 34  2  0
 10  5  1  0
 34 14  1  0
 34 23  1  0
 32 27  1  0
  1 35  1  0
  1 36  1  0
  1 37  1  0
  2 38  1  0
  2 39  1  0
  4 40  1  0
  4 41  1  0
  6 42  1  0
  7 43  1  0
  8 44  1  0
  9 45  1  0
 10 46  1  0
 13 47  1  0
 13 48  1  0
 18 49  1  0
 18 50  1  0
 24 51  1  0
 28 52  1  0
 29 53  1  0
 30 54  1  0
 31 55  1  0
 32 56  1  0
M  END
>  <meeko>  (5) 
{"is_sidechain": [false], "free_energy": -6.026, "intermolecular_energy": -9.749, "internal_energy": -1.349}

$$$$
A3_meeko_out
     RDKit          3D

 56 59  0  0  0  0  0  0  0  0999 V2000
   -2.4640   17.4840    6.0240 C   0  0  0  0  0  0  0  0  0  0  0  0
   -1.1030   17.7820    6.6350 C   0  0  0  0  0  0  0  0  0  0  0  0
   -0.0110   17.3090    5.7870 N   0  0  0  0  0  0  0  0  0  0  0  0
   -0.2670   16.1040    4.9960 C   0  0  0  0  0  0  0  0  0  0  0  0
    0.3180   14.8750    5.6550 C   0  0  0  0  0  0  0  0  0  0  0  0
    1.3200   14.1350    5.0090 C   0  0  0  0  0  0  0  0  0  0  0  0
    1.8590   12.9940    5.6070 C   0  0  0  0  0  0  0  0  0  0  0  0
    1.4010   12.5820    6.8570 C   0  0  0  0  0  0  0  0  0  0  0  0
    0.4070   13.3090    7.5090 C   0  0  0  0  0  0  0  0  0  0  0  0
   -0.1330   14.4490    6.9120 C   0  0  0  0  0  0  0  0  0  0  0  0
    1.2680   17.8560    5.7490 C   0  0  0  0  0  0  0  0  0  0  0  0
    1.8770   17.9950    4.6830 O   0  0  0  0  0  0  0  0  0  0  0  0
    1.9420   18.2850    7.0560 C   0  0  0  0  0  0  0  0  0  0  0  0
    2.0660   17.1880    7.9830 N   0  0  0  0  0  0  0  0  0  0  0  0
    1.5210   17.1540    9.2780 C   0  0  0  0  0  0  0  0  0  0  0  0
    0.7540   17.9500    9.7890 O   0  0  0  0  0  0  0  0  0  0  0  0
    2.0500   16.0050    9.9010 N   0  0  0  0  0  0  0  0  0  0  0  0
    1.8390   15.6610   11.2910 C   0  0  0  0  0  0  0  0  0  0  0  0
    0.4480   15.1150   11.6010 C   0  0  0  0  0  0  0  0  0  0  0  0
   -0.1510   14.6780   10.4690 F   0  0  0  0  0  0  0  0  0  0  0  0
    0.5290   14.0580   12.4420 F   0  0  0  0  0  0  0  0  0  0  0  0
   -0.3570   16.0340   12.1670 F   0  0  0  0  0  0  0  0  0  0  0  0
    2.9900   15.4400    9.0370 C   0  0  0  0  0  0  0  0  0  0  0  0
    3.8540   14.3960    9.1330 C   0  0  0  0  0  0  0  0  0  0  0  0
    4.6810   14.0900    8.1100 N   0  0  0  0  0  0  0  0  0  0  0  0
    4.6340   14.8680    6.9920 C   0  0  0  0  0  0  0  0  0  0  0  0
    5.5400   14.5230    5.8760 C   0  0  0  0  0  0  0  0  0  0  0  0
    5.8050   13.1830    5.5310 C   0  0  0  0  0  0  0  0  0  0  0  0
    6.6600   12.8540    4.4750 C   0  0  0  0  0  0  0  0  0  0  0  0
    7.2730   13.8600    3.7330 C   0  0  0  0  0  0  0  0  0  0  0  0
    7.0310   15.1930    4.0490 C   0  0  0  0  0  0  0  0  0  0  0  0
    6.1750   15.5180    5.1070 C   0  0  0  0  0  0  0  0  0  0  0  0
    3.8110   15.9280    6.8250 N   0  0  0  0  0  0  0  0  0  0  0  0
    3.0140   16.1650    7.8650 C   0  0  0  0  0  0  0  0  0  0  0  0
   -3.1989   17.3231    6.8265 H   0  0  0  0  0  0  0  0  0  0  0  0
   -2.7807   18.3341    5.4019 H   0  0  0  0  0  0  0  0  0  0  0  0
   -2.3965   16.5794    5.4019 H   0  0  0  0  0  0  0  0  0  0  0  0
   -1.0037   18.8692    6.7696 H   0  0  0  0  0  0  0  0  0  0  0  0
   -1.0390   17.2562    7.5991 H   0  0  0  0  0  0  0  0  0  0  0  0
   -1.3536   15.9700    4.8900 H   0  0  0  0  0  0  0  0  0  0  0  0
    0.2095   16.2286    4.0124 H   0  0  0  0  0  0  0  0  0  0  0  0
    1.6844   14.4567    4.0222 H   0  0  0  0  0  0  0  0  0  0  0  0
    2.6442   12.4211    5.0920 H   0  0  0  0  0  0  0  0  0  0  0  0
    1.8241   11.6830    7.3289 H   0  0  0  0  0  0  0  0  0  0  0  0
    0.0472   12.9837    8.4963 H   0  0  0  0  0  0  0  0  0  0  0  0
   -0.9184   15.0175    7.4317 H   0  0  0  0  0  0  0  0  0  0  0  0
    2.9458   18.6727    6.8277 H   0  0  0  0  0  0  0  0  0  0  0  0
    1.3151   19.0578    7.5248 H   0  0  0  0  0  0  0  0  0  0  0  0
    2.5790   14.8974   11.5726 H   0  0  0  0  0  0  0  0  0  0  0  0
    1.9454   16.5934   11.8649 H   0  0  0  0  0  0  0  0  0  0  0  0
    3.8803   13.7939   10.0532 H   0  0  0  0  0  0  0  0  0  0  0  0
    5.3276   12.3761    6.1064 H   0  0  0  0  0  0  0  0  0  0  0  0
    6.8488   11.7984    4.2299 H   0  0  0  0  0  0  0  0  0  0  0  0
    7.9451   13.6022    2.9013 H   0  0  0  0  0  0  0  0  0  0  0  0
    7.5130   15.9921    3.4667 H   0  0  0  0  0  0  0  0  0  0  0  0
    5.9934   16.5767    5.3442 H   0  0  0  0  0  0  0  0  0  0  0  0
  1  2  1  0
  2  3  1  0
  3  4  1  0
  4  5  1  0
  5  6  2  0
  6  7  1  0
  7  8  2  0
  8  9  1  0
  9 10  2  0
  3 11  1  0
 11 12  2  0
 11 13  1  0
 13 14  1  0
 14 15  1  0
 15 16  2  0
 15 17  1  0
 17 18  1  0
 18 19  1  0
 19 20  1  0
 19 21  1  0
 19 22  1  0
 17 23  1  0
 23 24  2  0
 24 25  1  0
 25 26  2  0
 26 27  1  0
 27 28  2  0
 28 29  1  0
 29 30  2  0
 30 31  1  0
 31 32  2  0
 26 33  1  0
 33 34  2  0
 10  5  1  0
 34 14  1  0
 34 23  1  0
 32 27  1  0
  1 35  1  0
  1 36  1  0
  1 37  1  0
  2 38  1  0
  2 39  1  0
  4 40  1  0
  4 41  1  0
  6 42  1  0
  7 43  1  0
  8 44  1  0
  9 45  1  0
 10 46  1  0
 13 47  1  0
 13 48  1  0
 18 49  1  0
 18 50  1  0
 24 51  1  0
 28 52  1  0
 29 53  1  0
 30 54  1  0
 31 55  1  0
 32 56  1  0
M  END
>  <meeko>  (6) 
{"is_sidechain": [false], "free_energy": -6.016, "intermolecular_energy": -8.058, "internal_energy": -3.024}

$$$$
A3_meeko_out
     RDKit          3D

 56 59  0  0  0  0  0  0  0  0999 V2000
    4.7000   15.5430    9.5390 C   0  0  0  0  0  0  0  0  0  0  0  0
    5.3520   15.8280    8.1940 C   0  0  0  0  0  0  0  0  0  0  0  0
    5.0160   14.8100    7.2010 N   0  0  0  0  0  0  0  0  0  0  0  0
    3.8930   13.9250    7.5180 C   0  0  0  0  0  0  0  0  0  0  0  0
    2.7110   14.1860    6.6120 C   0  0  0  0  0  0  0  0  0  0  0  0
    2.1460   13.1380    5.8670 C   0  0  0  0  0  0  0  0  0  0  0  0
    1.0600   13.3720    5.0230 C   0  0  0  0  0  0  0  0  0  0  0  0
    0.5260   14.6540    4.9150 C   0  0  0  0  0  0  0  0  0  0  0  0
    1.0760   15.7030    5.6500 C   0  0  0  0  0  0  0  0  0  0  0  0
    2.1630   15.4710    6.4950 C   0  0  0  0  0  0  0  0  0  0  0  0
    5.7340   14.5620    6.0360 C   0  0  0  0  0  0  0  0  0  0  0  0
    6.3820   15.4530    5.4760 O   0  0  0  0  0  0  0  0  0  0  0  0
    5.7130   13.1570    5.4230 C   0  0  0  0  0  0  0  0  0  0  0  0
    7.0400   12.6120    5.2800 N   0  0  0  0  0  0  0  0  0  0  0  0
    7.8280   12.1090    6.3300 C   0  0  0  0  0  0  0  0  0  0  0  0
    7.5000   11.9140    7.4860 O   0  0  0  0  0  0  0  0  0  0  0  0
    9.1100   11.8770    5.7880 N   0  0  0  0  0  0  0  0  0  0  0  0
   10.2610   11.4700    6.5640 C   0  0  0  0  0  0  0  0  0  0  0  0
   10.6120    9.9910    6.4430 C   0  0  0  0  0  0  0  0  0  0  0  0
   11.3540    9.7710    5.3330 F   0  0  0  0  0  0  0  0  0  0  0  0
   11.3530    9.5890    7.5020 F   0  0  0  0  0  0  0  0  0  0  0  0
    9.5230    9.2020    6.3750 F   0  0  0  0  0  0  0  0  0  0  0  0
    9.1160   12.3560    4.4770 C   0  0  0  0  0  0  0  0  0  0  0  0
   10.0720   12.4730    3.5190 C   0  0  0  0  0  0  0  0  0  0  0  0
    9.7780   13.0100    2.3140 N   0  0  0  0  0  0  0  0  0  0  0  0
    8.5030   13.4420    2.0980 C   0  0  0  0  0  0  0  0  0  0  0  0
    8.1900   14.0240    0.7750 C   0  0  0  0  0  0  0  0  0  0  0  0
    9.1670   14.6990    0.0180 C   0  0  0  0  0  0  0  0  0  0  0  0
    8.8740   15.2480   -1.2340 C   0  0  0  0  0  0  0  0  0  0  0  0
    7.5910   15.1330   -1.7630 C   0  0  0  0  0  0  0  0  0  0  0  0
    6.6050   14.4720   -1.0390 C   0  0  0  0  0  0  0  0  0  0  0  0
    6.9020   13.9250    0.2130 C   0  0  0  0  0  0  0  0  0  0  0  0
    7.5010   13.3690    3.0020 N   0  0  0  0  0  0  0  0  0  0  0  0
    7.8560   12.8180    4.1610 C   0  0  0  0  0  0  0  0  0  0  0  0
    5.3829   15.8415   10.3481 H   0  0  0  0  0  0  0  0  0  0  0  0
    3.7632   16.1137    9.6206 H   0  0  0  0  0  0  0  0  0  0  0  0
    4.4826   14.4678    9.6206 H   0  0  0  0  0  0  0  0  0  0  0  0
    5.0061   16.8071    7.8311 H   0  0  0  0  0  0  0  0  0  0  0  0
    6.4429   15.8211    8.3348 H   0  0  0  0  0  0  0  0  0  0  0  0
    4.2148   12.8804    7.3943 H   0  0  0  0  0  0  0  0  0  0  0  0
    3.5827   14.1181    8.5555 H   0  0  0  0  0  0  0  0  0  0  0  0
    2.5635   12.1237    5.9497 H   0  0  0  0  0  0  0  0  0  0  0  0
    0.6256   12.5444    4.4430 H   0  0  0  0  0  0  0  0  0  0  0  0
   -0.3301   14.8387    4.2494 H   0  0  0  0  0  0  0  0  0  0  0  0
    0.6531   16.7148    5.5642 H   0  0  0  0  0  0  0  0  0  0  0  0
    2.5925   16.3025    7.0731 H   0  0  0  0  0  0  0  0  0  0  0  0
    5.1247   12.4938    6.0742 H   0  0  0  0  0  0  0  0  0  0  0  0
    5.2648   13.2293    4.4211 H   0  0  0  0  0  0  0  0  0  0  0  0
   11.1278   12.0578    6.2277 H   0  0  0  0  0  0  0  0  0  0  0  0
   10.0061   11.6466    7.6194 H   0  0  0  0  0  0  0  0  0  0  0  0
   11.0955   12.1273    3.7260 H   0  0  0  0  0  0  0  0  0  0  0  0
   10.1856   14.7967    0.4216 H   0  0  0  0  0  0  0  0  0  0  0  0
    9.6576   15.7712   -1.8016 H   0  0  0  0  0  0  0  0  0  0  0  0
    7.3588   15.5629   -2.7485 H   0  0  0  0  0  0  0  0  0  0  0  0
    5.5897   14.3793   -1.4519 H   0  0  0  0  0  0  0  0  0  0  0  0
    6.1108   13.4047    0.7727 H   0  0  0  0  0  0  0  0  0  0  0  0
  1  2  1  0
  2  3  1  0
  3  4  1  0
  4  5  1  0
  5  6  2  0
  6  7  1  0
  7  8  2  0
  8  9  1  0
  9 10  2  0
  3 11  1  0
 11 12  2  0
 11 13  1  0
 13 14  1  0
 14 15  1  0
 15 16  2  0
 15 17  1  0
 17 18  1  0
 18 19  1  0
 19 20  1  0
 19 21  1  0
 19 22  1  0
 17 23  1  0
 23 24  2  0
 24 25  1  0
 25 26  2  0
 26 27  1  0
 27 28  2  0
 28 29  1  0
 29 30  2  0
 30 31  1  0
 31 32  2  0
 26 33  1  0
 33 34  2  0
 10  5  1  0
 34 14  1  0
 34 23  1  0
 32 27  1  0
  1 35  1  0
  1 36  1  0
  1 37  1  0
  2 38  1  0
  2 39  1  0
  4 40  1  0
  4 41  1  0
  6 42  1  0
  7 43  1  0
  8 44  1  0
  9 45  1  0
 10 46  1  0
 13 47  1  0
 13 48  1  0
 18 49  1  0
 18 50  1  0
 24 51  1  0
 28 52  1  0
 29 53  1  0
 30 54  1  0
 31 55  1  0
 32 56  1  0
M  END
>  <meeko>  (7) 
{"is_sidechain": [false], "free_energy": -5.965, "intermolecular_energy": -9.558, "internal_energy": -1.447}

$$$$
A3_meeko_out
     RDKit          3D

 56 59  0  0  0  0  0  0  0  0999 V2000
   14.8260    9.9600    3.1080 C   0  0  0  0  0  0  0  0  0  0  0  0
   15.2600    8.6350    3.7160 C   0  0  0  0  0  0  0  0  0  0  0  0
   14.4370    8.2700    4.8680 N   0  0  0  0  0  0  0  0  0  0  0  0
   15.0190    7.3200    5.8180 C   0  0  0  0  0  0  0  0  0  0  0  0
   14.3680    5.9600    5.7100 C   0  0  0  0  0  0  0  0  0  0  0  0
   13.6970    5.4070    6.8130 C   0  0  0  0  0  0  0  0  0  0  0  0
   13.1010    4.1480    6.7230 C   0  0  0  0  0  0  0  0  0  0  0  0
   13.1670    3.4290    5.5320 C   0  0  0  0  0  0  0  0  0  0  0  0
   13.8300    3.9680    4.4290 C   0  0  0  0  0  0  0  0  0  0  0  0
   14.4270    5.2260    4.5170 C   0  0  0  0  0  0  0  0  0  0  0  0
   13.1240    8.6790    5.0740 C   0  0  0  0  0  0  0  0  0  0  0  0
   12.1760    8.1010    4.5330 O   0  0  0  0  0  0  0  0  0  0  0  0
   12.8450    9.8820    5.9820 C   0  0  0  0  0  0  0  0  0  0  0  0
   11.5840   10.5080    5.6720 N   0  0  0  0  0  0  0  0  0  0  0  0
   11.4170   11.6270    4.8370 C   0  0  0  0  0  0  0  0  0  0  0  0
   12.2510   12.1690    4.1350 O   0  0  0  0  0  0  0  0  0  0  0  0
   10.0720   12.0290    4.9770 N   0  0  0  0  0  0  0  0  0  0  0  0
    9.5120   13.2220    4.3790 C   0  0  0  0  0  0  0  0  0  0  0  0
    8.7210   12.9730    3.0990 C   0  0  0  0  0  0  0  0  0  0  0  0
    7.7830   12.0190    3.3000 F   0  0  0  0  0  0  0  0  0  0  0  0
    8.0690   14.0970    2.7170 F   0  0  0  0  0  0  0  0  0  0  0  0
    9.5000   12.5780    2.0740 F   0  0  0  0  0  0  0  0  0  0  0  0
    9.4880   11.2430    5.9720 C   0  0  0  0  0  0  0  0  0  0  0  0
    8.2720   11.2330    6.5760 C   0  0  0  0  0  0  0  0  0  0  0  0
    7.9930   10.3400    7.5510 N   0  0  0  0  0  0  0  0  0  0  0  0
    8.9720    9.4660    7.9180 C   0  0  0  0  0  0  0  0  0  0  0  0
    8.6560    8.4890    8.9830 C   0  0  0  0  0  0  0  0  0  0  0  0
    7.3750    8.4250    9.5660 C   0  0  0  0  0  0  0  0  0  0  0  0
    7.0740    7.5010   10.5720 C   0  0  0  0  0  0  0  0  0  0  0  0
    8.0490    6.6140   11.0190 C   0  0  0  0  0  0  0  0  0  0  0  0
    9.3230    6.6520   10.4620 C   0  0  0  0  0  0  0  0  0  0  0  0
    9.6210    7.5780    9.4570 C   0  0  0  0  0  0  0  0  0  0  0  0
   10.2080    9.4190    7.3740 N   0  0  0  0  0  0  0  0  0  0  0  0
   10.4110   10.3160    6.4110 C   0  0  0  0  0  0  0  0  0  0  0  0
   14.5923   10.6734    3.9121 H   0  0  0  0  0  0  0  0  0  0  0  0
   15.6394   10.3620    2.4861 H   0  0  0  0  0  0  0  0  0  0  0  0
   13.9324    9.8029    2.4861 H   0  0  0  0  0  0  0  0  0  0  0  0
   15.1731    7.8477    2.9527 H   0  0  0  0  0  0  0  0  0  0  0  0
   16.2999    8.7407    4.0588 H   0  0  0  0  0  0  0  0  0  0  0  0
   16.0943    7.2192    5.6094 H   0  0  0  0  0  0  0  0  0  0  0  0
   14.8519    7.7030    6.8355 H   0  0  0  0  0  0  0  0  0  0  0  0
   13.6407    5.9709    7.7558 H   0  0  0  0  0  0  0  0  0  0  0  0
   12.5789    3.7235    7.5932 H   0  0  0  0  0  0  0  0  0  0  0  0
   12.6968    2.4371    5.4610 H   0  0  0  0  0  0  0  0  0  0  0  0
   13.8821    3.4001    3.4884 H   0  0  0  0  0  0  0  0  0  0  0  0
   14.9480    5.6451    3.6436 H   0  0  0  0  0  0  0  0  0  0  0  0
   12.8254    9.5414    7.0277 H   0  0  0  0  0  0  0  0  0  0  0  0
   13.6421   10.6228    5.8213 H   0  0  0  0  0  0  0  0  0  0  0  0
    8.8404   13.6919    5.1126 H   0  0  0  0  0  0  0  0  0  0  0  0
   10.3618   13.8637    4.1032 H   0  0  0  0  0  0  0  0  0  0  0  0
    7.5057   11.9597    6.2683 H   0  0  0  0  0  0  0  0  0  0  0  0
    6.5931    9.1180    9.2219 H   0  0  0  0  0  0  0  0  0  0  0  0
    6.0655    7.4753   11.0104 H   0  0  0  0  0  0  0  0  0  0  0  0
    7.8131    5.8861   11.8093 H   0  0  0  0  0  0  0  0  0  0  0  0
   10.0969    5.9531   10.8122 H   0  0  0  0  0  0  0  0  0  0  0  0
   10.6330    7.5956    9.0262 H   0  0  0  0  0  0  0  0  0  0  0  0
  1  2  1  0
  2  3  1  0
  3  4  1  0
  4  5  1  0
  5  6  2  0
  6  7  1  0
  7  8  2  0
  8  9  1  0
  9 10  2  0
  3 11  1  0
 11 12  2  0
 11 13  1  0
 13 14  1  0
 14 15  1  0
 15 16  2  0
 15 17  1  0
 17 18  1  0
 18 19  1  0
 19 20  1  0
 19 21  1  0
 19 22  1  0
 17 23  1  0
 23 24  2  0
 24 25  1  0
 25 26  2  0
 26 27  1  0
 27 28  2  0
 28 29  1  0
 29 30  2  0
 30 31  1  0
 31 32  2  0
 26 33  1  0
 33 34  2  0
 10  5  1  0
 34 14  1  0
 34 23  1  0
 32 27  1  0
  1 35  1  0
  1 36  1  0
  1 37  1  0
  2 38  1  0
  2 39  1  0
  4 40  1  0
  4 41  1  0
  6 42  1  0
  7 43  1  0
  8 44  1  0
  9 45  1  0
 10 46  1  0
 13 47  1  0
 13 48  1  0
 18 49  1  0
 18 50  1  0
 24 51  1  0
 28 52  1  0
 29 53  1  0
 30 54  1  0
 31 55  1  0
 32 56  1  0
M  END
>  <meeko>  (8) 
{"is_sidechain": [false], "free_energy": -5.876, "intermolecular_energy": -9.316, "internal_energy": -1.554}

$$$$
A3_meeko_out
     RDKit          3D

 56 59  0  0  0  0  0  0  0  0999 V2000
    3.7120   14.2670    9.5370 C   0  0  0  0  0  0  0  0  0  0  0  0
    3.5930   15.0850    8.2600 C   0  0  0  0  0  0  0  0  0  0  0  0
    3.2270   14.2530    7.1140 N   0  0  0  0  0  0  0  0  0  0  0  0
    1.8660   13.7150    7.0990 C   0  0  0  0  0  0  0  0  0  0  0  0
    0.8720   14.7370    6.5940 C   0  0  0  0  0  0  0  0  0  0  0  0
   -0.1070   15.2570    7.4560 C   0  0  0  0  0  0  0  0  0  0  0  0
   -1.0320   16.1950    6.9960 C   0  0  0  0  0  0  0  0  0  0  0  0
   -0.9890   16.6240    5.6710 C   0  0  0  0  0  0  0  0  0  0  0  0
   -0.0210   16.1160    4.8060 C   0  0  0  0  0  0  0  0  0  0  0  0
    0.9060   15.1780    5.2640 C   0  0  0  0  0  0  0  0  0  0  0  0
    4.0950   13.8640    6.0990 C   0  0  0  0  0  0  0  0  0  0  0  0
    3.7620   13.0280    5.2520 O   0  0  0  0  0  0  0  0  0  0  0  0
    5.5000   14.4720    6.0360 C   0  0  0  0  0  0  0  0  0  0  0  0
    6.5210   13.4600    5.9250 N   0  0  0  0  0  0  0  0  0  0  0  0
    7.1100   12.7800    7.0050 C   0  0  0  0  0  0  0  0  0  0  0  0
    6.7860   12.8140    8.1780 O   0  0  0  0  0  0  0  0  0  0  0  0
    8.1870   12.0430    6.4700 N   0  0  0  0  0  0  0  0  0  0  0  0
    9.1380   11.2960    7.2650 C   0  0  0  0  0  0  0  0  0  0  0  0
    8.8020    9.8160    7.4210 C   0  0  0  0  0  0  0  0  0  0  0  0
    7.6460    9.6640    8.1060 F   0  0  0  0  0  0  0  0  0  0  0  0
    8.6270    9.2380    6.2100 F   0  0  0  0  0  0  0  0  0  0  0  0
    9.7620    9.1310    8.0720 F   0  0  0  0  0  0  0  0  0  0  0  0
    8.3120   12.3810    5.1210 C   0  0  0  0  0  0  0  0  0  0  0  0
    9.1990   12.0570    4.1440 C   0  0  0  0  0  0  0  0  0  0  0  0
    9.0730   12.5690    2.9010 N   0  0  0  0  0  0  0  0  0  0  0  0
    8.0430   13.4300    2.6630 C   0  0  0  0  0  0  0  0  0  0  0  0
    7.9100   13.9820    1.2980 C   0  0  0  0  0  0  0  0  0  0  0  0
    6.6990   13.8930    0.5830 C   0  0  0  0  0  0  0  0  0  0  0  0
    6.5700   14.4160   -0.7070 C   0  0  0  0  0  0  0  0  0  0  0  0
    7.6520   15.0430   -1.3170 C   0  0  0  0  0  0  0  0  0  0  0  0
    8.8610   15.1460   -0.6370 C   0  0  0  0  0  0  0  0  0  0  0  0
    8.9870   14.6220    0.6540 C   0  0  0  0  0  0  0  0  0  0  0  0
    7.1270   13.8080    3.5830 N   0  0  0  0  0  0  0  0  0  0  0  0
    7.3030   13.2560    4.7820 C   0  0  0  0  0  0  0  0  0  0  0  0
    3.6153   14.9314   10.4084 H   0  0  0  0  0  0  0  0  0  0  0  0
    2.9146   13.5098    9.5630 H   0  0  0  0  0  0  0  0  0  0  0  0
    4.6921   13.7684    9.5630 H   0  0  0  0  0  0  0  0  0  0  0  0
    2.8210   15.8557    8.4015 H   0  0  0  0  0  0  0  0  0  0  0  0
    4.5728   15.5401    8.0530 H   0  0  0  0  0  0  0  0  0  0  0  0
    1.8373   12.8333    6.4419 H   0  0  0  0  0  0  0  0  0  0  0  0
    1.5902   13.4446    8.1290 H   0  0  0  0  0  0  0  0  0  0  0  0
   -0.1450   14.9220    8.5030 H   0  0  0  0  0  0  0  0  0  0  0  0
   -1.7951   16.5958    7.6794 H   0  0  0  0  0  0  0  0  0  0  0  0
   -1.7184   17.3630    5.3078 H   0  0  0  0  0  0  0  0  0  0  0  0
    0.0125   16.4550    3.7601 H   0  0  0  0  0  0  0  0  0  0  0  0
    1.6682   14.7824    4.5765 H   0  0  0  0  0  0  0  0  0  0  0  0
    5.5610   15.1358    5.1610 H   0  0  0  0  0  0  0  0  0  0  0  0
    5.6722   15.0280    6.9694 H   0  0  0  0  0  0  0  0  0  0  0  0
   10.1252   11.3764    6.7864 H   0  0  0  0  0  0  0  0  0  0  0  0
    9.1150   11.7319    8.2747 H   0  0  0  0  0  0  0  0  0  0  0  0
   10.0286   11.3703    4.3681 H   0  0  0  0  0  0  0  0  0  0  0  0
    5.8343   13.4001    1.0512 H   0  0  0  0  0  0  0  0  0  0  0  0
    5.6118   14.3317   -1.2405 H   0  0  0  0  0  0  0  0  0  0  0  0
    7.5518   15.4552   -2.3319 H   0  0  0  0  0  0  0  0  0  0  0  0
    9.7195   15.6403   -1.1151 H   0  0  0  0  0  0  0  0  0  0  0  0
    9.9497   14.7119    1.1785 H   0  0  0  0  0  0  0  0  0  0  0  0
  1  2  1  0
  2  3  1  0
  3  4  1  0
  4  5  1  0
  5  6  2  0
  6  7  1  0
  7  8  2  0
  8  9  1  0
  9 10  2  0
  3 11  1  0
 11 12  2  0
 11 13  1  0
 13 14  1  0
 14 15  1  0
 15 16  2  0
 15 17  1  0
 17 18  1  0
 18 19  1  0
 19 20  1  0
 19 21  1  0
 19 22  1  0
 17 23  1  0
 23 24  2  0
 24 25  1  0
 25 26  2  0
 26 27  1  0
 27 28  2  0
 28 29  1  0
 29 30  2  0
 30 31  1  0
 31 32  2  0
 26 33  1  0
 33 34  2  0
 10  5  1  0
 34 14  1  0
 34 23  1  0
 32 27  1  0
  1 35  1  0
  1 36  1  0
  1 37  1  0
  2 38  1  0
  2 39  1  0
  4 40  1  0
  4 41  1  0
  6 42  1  0
  7 43  1  0
  8 44  1  0
  9 45  1  0
 10 46  1  0
 13 47  1  0
 13 48  1  0
 18 49  1  0
 18 50  1  0
 24 51  1  0
 28 52  1  0
 29 53  1  0
 30 54  1  0
 31 55  1  0
 32 56  1  0
M  END
>  <meeko>  (9) 
{"is_sidechain": [false], "free_energy": -5.792, "intermolecular_energy": -9.162, "internal_energy": -1.579}

$$$$
A3_meeko_out
     RDKit          3D

 56 59  0  0  0  0  0  0  0  0999 V2000
    5.3500   13.9410    8.7210 C   0  0  0  0  0  0  0  0  0  0  0  0
    4.6910   15.1490    8.0720 C   0  0  0  0  0  0  0  0  0  0  0  0
    4.7810   15.0990    6.6140 N   0  0  0  0  0  0  0  0  0  0  0  0
    4.2540   13.8990    5.9610 C   0  0  0  0  0  0  0  0  0  0  0  0
    2.7500   13.8100    6.0990 C   0  0  0  0  0  0  0  0  0  0  0  0
    2.1730   12.8550    6.9510 C   0  0  0  0  0  0  0  0  0  0  0  0
    0.7870   12.7620    7.0770 C   0  0  0  0  0  0  0  0  0  0  0  0
   -0.0380   13.6210    6.3550 C   0  0  0  0  0  0  0  0  0  0  0  0
    0.5230   14.5750    5.5060 C   0  0  0  0  0  0  0  0  0  0  0  0
    1.9090   14.6700    5.3780 C   0  0  0  0  0  0  0  0  0  0  0  0
    5.4080   16.0530    5.8190 C   0  0  0  0  0  0  0  0  0  0  0  0
    4.7710   16.7420    5.0150 O   0  0  0  0  0  0  0  0  0  0  0  0
    6.9240   16.2470    5.9300 C   0  0  0  0  0  0  0  0  0  0  0  0
    7.6330   15.5530    4.8830 N   0  0  0  0  0  0  0  0  0  0  0  0
    7.7620   15.9990    3.5570 C   0  0  0  0  0  0  0  0  0  0  0  0
    7.4350   17.0770    3.0940 O   0  0  0  0  0  0  0  0  0  0  0  0
    8.3420   14.9350    2.8350 N   0  0  0  0  0  0  0  0  0  0  0  0
    8.5350   14.9330    1.4010 C   0  0  0  0  0  0  0  0  0  0  0  0
    7.3030   14.5260    0.5990 C   0  0  0  0  0  0  0  0  0  0  0  0
    6.4530   15.5710    0.4750 F   0  0  0  0  0  0  0  0  0  0  0  0
    7.6540   14.1470   -0.6520 F   0  0  0  0  0  0  0  0  0  0  0  0
    6.6270   13.5080    1.1660 F   0  0  0  0  0  0  0  0  0  0  0  0
    8.4350   13.8350    3.6890 C   0  0  0  0  0  0  0  0  0  0  0  0
    8.8260   12.5440    3.5280 C   0  0  0  0  0  0  0  0  0  0  0  0
    8.7880   11.6780    4.5640 N   0  0  0  0  0  0  0  0  0  0  0  0
    8.3320   12.1340    5.7650 C   0  0  0  0  0  0  0  0  0  0  0  0
    8.2980   11.1790    6.8940 C   0  0  0  0  0  0  0  0  0  0  0  0
    8.6030    9.8160    6.7140 C   0  0  0  0  0  0  0  0  0  0  0  0
    8.5730    8.9120    7.7810 C   0  0  0  0  0  0  0  0  0  0  0  0
    8.2390    9.3510    9.0590 C   0  0  0  0  0  0  0  0  0  0  0  0
    7.9350   10.6920    9.2680 C   0  0  0  0  0  0  0  0  0  0  0  0
    7.9640   11.5930    8.1990 C   0  0  0  0  0  0  0  0  0  0  0  0
    7.9160   13.3980    6.0020 N   0  0  0  0  0  0  0  0  0  0  0  0
    7.9930   14.2020    4.9430 C   0  0  0  0  0  0  0  0  0  0  0  0
    5.2970   14.0382    9.8154 H   0  0  0  0  0  0  0  0  0  0  0  0
    4.8263   13.0256    8.4084 H   0  0  0  0  0  0  0  0  0  0  0  0
    6.4032   13.8858    8.4084 H   0  0  0  0  0  0  0  0  0  0  0  0
    3.6304   15.1748    8.3625 H   0  0  0  0  0  0  0  0  0  0  0  0
    5.2175   16.0514    8.4161 H   0  0  0  0  0  0  0  0  0  0  0  0
    4.5141   13.9296    4.8926 H   0  0  0  0  0  0  0  0  0  0  0  0
    4.6986   13.0176    6.4462 H   0  0  0  0  0  0  0  0  0  0  0  0
    2.8195   12.1742    7.5242 H   0  0  0  0  0  0  0  0  0  0  0  0
    0.3452   12.0097    7.7470 H   0  0  0  0  0  0  0  0  0  0  0  0
   -1.1310   13.5472    6.4542 H   0  0  0  0  0  0  0  0  0  0  0  0
   -0.1287   15.2538    4.9363 H   0  0  0  0  0  0  0  0  0  0  0  0
    2.3451   15.4246    4.7069 H   0  0  0  0  0  0  0  0  0  0  0  0
    7.1510   17.3211    5.8617 H   0  0  0  0  0  0  0  0  0  0  0  0
    7.2509   15.8332    6.8954 H   0  0  0  0  0  0  0  0  0  0  0  0
    8.8268   15.9476    1.0919 H   0  0  0  0  0  0  0  0  0  0  0  0
    9.3091   14.1806    1.1899 H   0  0  0  0  0  0  0  0  0  0  0  0
    9.1772   12.2003    2.5438 H   0  0  0  0  0  0  0  0  0  0  0  0
    8.8712    9.4537    5.7106 H   0  0  0  0  0  0  0  0  0  0  0  0
    8.8138    7.8524    7.6099 H   0  0  0  0  0  0  0  0  0  0  0  0
    8.2156    8.6412    9.8990 H   0  0  0  0  0  0  0  0  0  0  0  0
    7.6713   11.0445   10.2761 H   0  0  0  0  0  0  0  0  0  0  0  0
    7.7203   12.6501    8.3811 H   0  0  0  0  0  0  0  0  0  0  0  0
  1  2  1  0
  2  3  1  0
  3  4  1  0
  4  5  1  0
  5  6  2  0
  6  7  1  0
  7  8  2  0
  8  9  1  0
  9 10  2  0
  3 11  1  0
 11 12  2  0
 11 13  1  0
 13 14  1  0
 14 15  1  0
 15 16  2  0
 15 17  1  0
 17 18  1  0
 18 19  1  0
 19 20  1  0
 19 21  1  0
 19 22  1  0
 17 23  1  0
 23 24  2  0
 24 25  1  0
 25 26  2  0
 26 27  1  0
 27 28  2  0
 28 29  1  0
 29 30  2  0
 30 31  1  0
 31 32  2  0
 26 33  1  0
 33 34  2  0
 10  5  1  0
 34 14  1  0
 34 23  1  0
 32 27  1  0
  1 35  1  0
  1 36  1  0
  1 37  1  0
  2 38  1  0
  2 39  1  0
  4 40  1  0
  4 41  1  0
  6 42  1  0
  7 43  1  0
  8 44  1  0
  9 45  1  0
 10 46  1  0
 13 47  1  0
 13 48  1  0
 18 49  1  0
 18 50  1  0
 24 51  1  0
 28 52  1  0
 29 53  1  0
 30 54  1  0
 31 55  1  0
 32 56  1  0
M  END
>  <meeko>  (10) 
{"is_sidechain": [false], "free_energy": -5.753, "intermolecular_energy": -8.585, "internal_energy": -2.097}

$$$$
