A3_meeko_out
 OpenBabel07172612583D

 56 59  0  0  0  0  0  0  0  0999 V2000
    3.7340   17.8600    7.7970 C   0  0  0  0  0  0  0  0  0  0  0  0
    3.6320   16.4660    8.3990 C   0  0  0  0  0  0  0  0  0  0  0  0
    4.4270   15.4920    7.6520 N   0  0  0  0  0  0  0  0  0  0  0  0
    4.2730   15.4950    6.1960 C   0  0  0  0  0  0  0  0  0  0  0  0
    3.0350   14.7390    5.7700 C   0  0  0  0  0  0  0  0  0  0  0  0
    3.0640   13.3400    5.6570 C   0  0  0  0  0  0  0  0  0  0  0  0
    1.9270   12.6350    5.2560 C   0  0  0  0  0  0  0  0  0  0  0  0
    0.7500   13.3210    4.9640 C   0  0  0  0  0  0  0  0  0  0  0  0
    0.7080   14.7100    5.0730 C   0  0  0  0  0  0  0  0  0  0  0  0
    1.8440   15.4170    5.4740 C   0  0  0  0  0  0  0  0  0  0  0  0
    5.2360   14.5150    8.2220 C   0  0  0  0  0  0  0  0  0  0  0  0
    4.7550   13.5750    8.8650 O   0  0  0  0  0  0  0  0  0  0  0  0
    6.7560   14.6100    8.0630 C   0  0  0  0  0  0  0  0  0  0  0  0
    7.3220   13.3850    7.5530 N   0  0  0  0  0  0  0  0  0  0  0  0
    7.9270   12.3840    8.3320 C   0  0  0  0  0  0  0  0  0  0  0  0
    7.9600   12.2980    9.5470 O   0  0  0  0  0  0  0  0  0  0  0  0
    8.5180   11.4790    7.4270 N   0  0  0  0  0  0  0  0  0  0  0  0
    9.3510   10.3620    7.8180 C   0  0  0  0  0  0  0  0  0  0  0  0
    8.6800    8.9990    7.6830 C   0  0  0  0  0  0  0  0  0  0  0  0
    7.4140    9.0460    8.1580 F   0  0  0  0  0  0  0  0  0  0  0  0
    8.6040    8.6330    6.3820 F   0  0  0  0  0  0  0  0  0  0  0  0
    9.3350    8.0290    8.3480 F   0  0  0  0  0  0  0  0  0  0  0  0
    8.3770   12.0030    6.1400 C   0  0  0  0  0  0  0  0  0  0  0  0
    8.8120   11.6200    4.9120 C   0  0  0  0  0  0  0  0  0  0  0  0
    8.5280   12.3610    3.8180 N   0  0  0  0  0  0  0  0  0  0  0  0
    7.8110   13.5080    3.9890 C   0  0  0  0  0  0  0  0  0  0  0  0
    7.5010   14.3100    2.7860 C   0  0  0  0  0  0  0  0  0  0  0  0
    7.3240   15.7060    2.8580 C   0  0  0  0  0  0  0  0  0  0  0  0
    7.0330   16.4660    1.7210 C   0  0  0  0  0  0  0  0  0  0  0  0
    6.9120   15.8480    0.4800 C   0  0  0  0  0  0  0  0  0  0  0  0
    7.0810   14.4710    0.3770 C   0  0  0  0  0  0  0  0  0  0  0  0
    7.3720   13.7130    1.5160 C   0  0  0  0  0  0  0  0  0  0  0  0
    7.3520   13.9600    5.1770 N   0  0  0  0  0  0  0  0  0  0  0  0
    7.6550   13.1760    6.2100 C   0  0  0  0  0  0  0  0  0  0  0  0
    3.7885   18.6050    8.6045 H   0  0  0  0  0  0  0  0  0  0  0  0
    4.6394   17.9257    7.1757 H   0  0  0  0  0  0  0  0  0  0  0  0
    2.8479   18.0568    7.1757 H   0  0  0  0  0  0  0  0  0  0  0  0
    3.9936   16.4993    9.4373 H   0  0  0  0  0  0  0  0  0  0  0  0
    2.5787   16.1517    8.3569 H   0  0  0  0  0  0  0  0  0  0  0  0
    4.1950   16.5351    5.8466 H   0  0  0  0  0  0  0  0  0  0  0  0
    5.1501   14.9993    5.7544 H   0  0  0  0  0  0  0  0  0  0  0  0
    3.9909   12.7939    5.8864 H   0  0  0  0  0  0  0  0  0  0  0  0
    1.9607   11.5388    5.1708 H   0  0  0  0  0  0  0  0  0  0  0  0
   -0.1458   12.7666    4.6475 H   0  0  0  0  0  0  0  0  0  0  0  0
   -0.2219   15.2506    4.8427 H   0  0  0  0  0  0  0  0  0  0  0  0
    1.8039   16.5130    5.5581 H   0  0  0  0  0  0  0  0  0  0  0  0
    6.9900   15.4273    7.3650 H   0  0  0  0  0  0  0  0  0  0  0  0
    7.1910   14.7988    9.0555 H   0  0  0  0  0  0  0  0  0  0  0  0
   10.2515   10.3664    7.1862 H   0  0  0  0  0  0  0  0  0  0  0  0
    9.5765   10.4969    8.8862 H   0  0  0  0  0  0  0  0  0  0  0  0
    9.4015   10.6973    4.8066 H   0  0  0  0  0  0  0  0  0  0  0  0
    7.4169   16.2097    3.8315 H   0  0  0  0  0  0  0  0  0  0  0  0
    6.8995   17.5544    1.8076 H   0  0  0  0  0  0  0  0  0  0  0  0
    6.6839   16.4454   -0.4151 H   0  0  0  0  0  0  0  0  0  0  0  0
    6.9857   13.9776   -0.6015 H   0  0  0  0  0  0  0  0  0  0  0  0
    7.5032   12.6253    1.4181 H   0  0  0  0  0  0  0  0  0  0  0  0
  1  2  1  0  0  0  0
  1 35  1  0  0  0  0
  1 36  1  0  0  0  0
  1 37  1  0  0  0  0
  2  3  1  0  0  0  0
  2 38  1  0  0  0  0
  2 39  1  0  0  0  0
  3  4  1  0  0  0  0
  3 11  1  0  0  0  0
  4  5  1  0  0  0  0
  4 40  1  0  0  0  0
  4 41  1  0  0  0  0
  5  6  2  0  0  0  0
  6  7  1  0  0  0  0
  6 42  1  0  0  0  0
  7  8  2  0  0  0  0
  7 43  1  0  0  0  0
  8  9  1  0  0  0  0
  8 44  1  0  0  0  0
  9 10  2  0  0  0  0
  9 45  1  0  0  0  0
 10  5  1  0  0  0  0
 10 46  1  0  0  0  0
 11 12  2  0  0  0  0
 11 13  1  0  0  0  0
 13 14  1  0  0  0  0
 13 47  1  0  0  0  0
 13 48  1  0  0  0  0
 14 15  1  0  0  0  0
 15 16  2  0  0  0  0
 15 17  1  0  0  0  0
 17 18  1  0  0  0  0
 17 23  1  0  0  0  0
 18 19  1  0  0  0  0
 18 49  1  0  0  0  0
 18 50  1  0  0  0  0
 19 20  1  0  0  0  0
 19 21  1  0  0  0  0
 19 22  1  0  0  0  0
 23 24  2  0  0  0  0
 24 25  1  0  0  0  0
 24 51  1  0  0  0  0
 25 26  2  0  0  0  0
 26 27  1  0  0  0  0
 26 33  1  0  0  0  0
 27 28  2  0  0  0  0
 28 29  1  0  0  0  0
 28 52  1  0  0  0  0
 29 30  2  0  0  0  0
 29 53  1  0  0  0  0
 30 31  1  0  0  0  0
 30 54  1  0  0  0  0
 31 32  2  0  0  0  0
 31 55  1  0  0  0  0
 32 27  1  0  0  0  0
 32 56  1  0  0  0  0
 33 34  2  0  0  0  0
 34 14  1  0  0  0  0
 34 23  1  0  0  0  0
M  END
>  <meeko>
{"is_sidechain": [false], "free_energy": -6.478, "intermolecular_energy": -9.886, "internal_energy": -1.901}

$$$$
