A7_fine14_out
     RDKit          3D

 53 56  0  0  0  0  0  0  0  0999 V2000
    0.8340   18.8520    3.8630 C   0  0  0  0  0  0  0  0  0  0  0  0
    1.5770   18.0380    4.9110 C   0  0  0  0  0  0  0  0  0  0  0  0
    0.6610   17.3800    5.8430 N   0  0  0  0  0  0  0  0  0  0  0  0
   -0.1350   16.2660    5.3220 C   0  0  0  0  0  0  0  0  0  0  0  0
    0.3270   14.9190    5.8120 C   0  0  0  0  0  0  0  0  0  0  0  0
    1.2460   14.1380    5.0940 C   0  0  0  0  0  0  0  0  0  0  0  0
    1.6190   12.8840    5.5700 C   0  0  0  0  0  0  0  0  0  0  0  0
    2.5000   12.1530    4.8760 F   0  0  0  0  0  0  0  0  0  0  0  0
    1.0890   12.3740    6.7510 C   0  0  0  0  0  0  0  0  0  0  0  0
    0.1640   13.1310    7.4650 C   0  0  0  0  0  0  0  0  0  0  0  0
   -0.2120   14.3860    6.9900 C   0  0  0  0  0  0  0  0  0  0  0  0
   -1.1080   15.0970    7.6900 F   0  0  0  0  0  0  0  0  0  0  0  0
    0.4380   17.9860    7.0820 C   0  0  0  0  0  0  0  0  0  0  0  0
   -0.6940   18.3470    7.4210 O   0  0  0  0  0  0  0  0  0  0  0  0
    1.6590   18.2350    7.9840 C   0  0  0  0  0  0  0  0  0  0  0  0
    1.8940   17.1040    8.8410 N   0  0  0  0  0  0  0  0  0  0  0  0
    1.1720   16.7750    9.9980 C   0  0  0  0  0  0  0  0  0  0  0  0
    0.3460   17.4660   10.5710 O   0  0  0  0  0  0  0  0  0  0  0  0
    1.5950   15.5000   10.3740 N   0  0  0  0  0  0  0  0  0  0  0  0
    1.1610   14.8200   11.5360 C   0  0  0  0  0  0  0  0  0  0  0  0
    1.4660   15.5470   12.6430 F   0  0  0  0  0  0  0  0  0  0  0  0
   -0.1920   14.7120   11.5140 F   0  0  0  0  0  0  0  0  0  0  0  0
    2.5430   15.0560    9.4570 C   0  0  0  0  0  0  0  0  0  0  0  0
    3.2730   13.9190    9.3270 C   0  0  0  0  0  0  0  0  0  0  0  0
    4.1260   13.7680    8.2890 N   0  0  0  0  0  0  0  0  0  0  0  0
    4.2190   14.7820    7.3800 C   0  0  0  0  0  0  0  0  0  0  0  0
    5.1480   14.5980    6.2440 C   0  0  0  0  0  0  0  0  0  0  0  0
    5.7850   15.6940    5.6270 C   0  0  0  0  0  0  0  0  0  0  0  0
    6.6620   15.5220    4.5520 C   0  0  0  0  0  0  0  0  0  0  0  0
    6.9250   14.2450    4.0640 C   0  0  0  0  0  0  0  0  0  0  0  0
    6.3110   13.1430    4.6500 C   0  0  0  0  0  0  0  0  0  0  0  0
    5.4330   13.3200    5.7250 C   0  0  0  0  0  0  0  0  0  0  0  0
    3.5340   15.9460    7.4460 N   0  0  0  0  0  0  0  0  0  0  0  0
    2.7180   16.0260    8.4950 C   0  0  0  0  0  0  0  0  0  0  0  0
    0.1731   19.5761    4.3619 H   0  0  0  0  0  0  0  0  0  0  0  0
    1.5591   19.3898    3.2346 H   0  0  0  0  0  0  0  0  0  0  0  0
    0.2324   18.1788    3.2346 H   0  0  0  0  0  0  0  0  0  0  0  0
    2.1795   17.2704    4.4033 H   0  0  0  0  0  0  0  0  0  0  0  0
    2.2134   18.7254    5.4876 H   0  0  0  0  0  0  0  0  0  0  0  0
   -1.1806   16.4098    5.6320 H   0  0  0  0  0  0  0  0  0  0  0  0
   -0.0210   16.2697    4.2279 H   0  0  0  0  0  0  0  0  0  0  0  0
    1.6722   14.5174    4.1536 H   0  0  0  0  0  0  0  0  0  0  0  0
    1.3974   11.3835    7.1166 H   0  0  0  0  0  0  0  0  0  0  0  0
   -0.2675   12.7407    8.3986 H   0  0  0  0  0  0  0  0  0  0  0  0
    2.5455   18.4020    7.3545 H   0  0  0  0  0  0  0  0  0  0  0  0
    1.4641   19.1191    8.6088 H   0  0  0  0  0  0  0  0  0  0  0  0
    1.6506   13.8353   11.5603 H   0  0  0  0  0  0  0  0  0  0  0  0
    3.1699   13.1153   10.0710 H   0  0  0  0  0  0  0  0  0  0  0  0
    5.5871   16.7095    6.0007 H   0  0  0  0  0  0  0  0  0  0  0  0
    7.1447   16.3965    4.0913 H   0  0  0  0  0  0  0  0  0  0  0  0
    7.6154   14.1080    3.2186 H   0  0  0  0  0  0  0  0  0  0  0  0
    6.5158   12.1319    4.2681 H   0  0  0  0  0  0  0  0  0  0  0  0
    4.9533   12.4389    6.1761 H   0  0  0  0  0  0  0  0  0  0  0  0
  1  2  1  0
  2  3  1  0
  3  4  1  0
  4  5  1  0
  5  6  2  0
  6  7  1  0
  7  8  1  0
  7  9  2  0
  9 10  1  0
 10 11  2  0
 11 12  1  0
  3 13  1  0
 13 14  2  0
 13 15  1  0
 15 16  1  0
 16 17  1  0
 17 18  2  0
 17 19  1  0
 19 20  1  0
 20 21  1  0
 20 22  1  0
 19 23  1  0
 23 24  2  0
 24 25  1  0
 25 26  2  0
 26 27  1  0
 27 28  2  0
 28 29  1  0
 29 30  2  0
 30 31  1  0
 31 32  2  0
 26 33  1  0
 33 34  2  0
 11  5  1  0
 34 16  1  0
 34 23  1  0
 32 27  1  0
  1 35  1  0
  1 36  1  0
  1 37  1  0
  2 38  1  0
  2 39  1  0
  4 40  1  0
  4 41  1  0
  6 42  1  0
  9 43  1  0
 10 44  1  0
 15 45  1  0
 15 46  1  0
 20 47  1  0
 24 48  1  0
 28 49  1  0
 29 50  1  0
 30 51  1  0
 31 52  1  0
 32 53  1  0
M  END
>  <meeko>  (1) 
{"is_sidechain": [false], "free_energy": -5.741, "intermolecular_energy": -8.426, "internal_energy": -3.15}

$$$$
A7_fine14_out
     RDKit          3D

 53 56  0  0  0  0  0  0  0  0999 V2000
   -1.6650   18.0630    7.3800 C   0  0  0  0  0  0  0  0  0  0  0  0
   -0.1510   17.9340    7.4340 C   0  0  0  0  0  0  0  0  0  0  0  0
    0.3920   17.3560    6.2050 N   0  0  0  0  0  0  0  0  0  0  0  0
   -0.3460   16.2390    5.6090 C   0  0  0  0  0  0  0  0  0  0  0  0
    0.1950   14.8880    5.9960 C   0  0  0  0  0  0  0  0  0  0  0  0
    1.1520   14.2170    5.2200 C   0  0  0  0  0  0  0  0  0  0  0  0
    1.6000   12.9540    5.6010 C   0  0  0  0  0  0  0  0  0  0  0  0
    2.5160   12.3280    4.8520 F   0  0  0  0  0  0  0  0  0  0  0  0
    1.1060   12.3290    6.7420 C   0  0  0  0  0  0  0  0  0  0  0  0
    0.1440   12.9760    7.5120 C   0  0  0  0  0  0  0  0  0  0  0  0
   -0.3060   14.2400    7.1330 C   0  0  0  0  0  0  0  0  0  0  0  0
   -1.2360   14.8440    7.8850 F   0  0  0  0  0  0  0  0  0  0  0  0
    1.6750   17.7430    5.8060 C   0  0  0  0  0  0  0  0  0  0  0  0
    1.9170   18.0330    4.6310 O   0  0  0  0  0  0  0  0  0  0  0  0
    2.7820   17.7420    6.8740 C   0  0  0  0  0  0  0  0  0  0  0  0
    3.2920   16.4120    7.0740 N   0  0  0  0  0  0  0  0  0  0  0  0
    4.3300   15.8030    6.3520 C   0  0  0  0  0  0  0  0  0  0  0  0
    4.8600   16.2180    5.3340 O   0  0  0  0  0  0  0  0  0  0  0  0
    4.6310   14.6180    7.0240 N   0  0  0  0  0  0  0  0  0  0  0  0
    5.5820   13.6670    6.5860 C   0  0  0  0  0  0  0  0  0  0  0  0
    5.2430   13.2010    5.3560 F   0  0  0  0  0  0  0  0  0  0  0  0
    6.7890   14.2710    6.4440 F   0  0  0  0  0  0  0  0  0  0  0  0
    3.8050   14.5160    8.1390 C   0  0  0  0  0  0  0  0  0  0  0  0
    3.6620   13.5980    9.1280 C   0  0  0  0  0  0  0  0  0  0  0  0
    2.7570   13.7880   10.1150 N   0  0  0  0  0  0  0  0  0  0  0  0
    2.0060   14.9280   10.0860 C   0  0  0  0  0  0  0  0  0  0  0  0
    1.0280   15.1290   11.1770 C   0  0  0  0  0  0  0  0  0  0  0  0
    1.1100   14.4060   12.3840 C   0  0  0  0  0  0  0  0  0  0  0  0
    0.1860   14.5950   13.4170 C   0  0  0  0  0  0  0  0  0  0  0  0
   -0.8480   15.5140   13.2670 C   0  0  0  0  0  0  0  0  0  0  0  0
   -0.9580   16.2430   12.0870 C   0  0  0  0  0  0  0  0  0  0  0  0
   -0.0310   16.0500   11.0560 C   0  0  0  0  0  0  0  0  0  0  0  0
    2.0830   15.8830    9.1310 N   0  0  0  0  0  0  0  0  0  0  0  0
    2.9920   15.6260    8.1920 C   0  0  0  0  0  0  0  0  0  0  0  0
   -2.0668   18.0972    8.4034 H   0  0  0  0  0  0  0  0  0  0  0  0
   -1.9355   18.9874    6.8488 H   0  0  0  0  0  0  0  0  0  0  0  0
   -2.0880   17.1976    6.8488 H   0  0  0  0  0  0  0  0  0  0  0  0
    0.2859   18.9329    7.5803 H   0  0  0  0  0  0  0  0  0  0  0  0
    0.1042   17.2632    8.2676 H   0  0  0  0  0  0  0  0  0  0  0  0
   -1.3947   16.3008    5.9353 H   0  0  0  0  0  0  0  0  0  0  0  0
   -0.2432   16.3285    4.5175 H   0  0  0  0  0  0  0  0  0  0  0  0
    1.5493   14.6889    4.3092 H   0  0  0  0  0  0  0  0  0  0  0  0
    1.4723   11.3333    7.0325 H   0  0  0  0  0  0  0  0  0  0  0  0
   -0.2590   12.4929    8.4144 H   0  0  0  0  0  0  0  0  0  0  0  0
    3.6017   18.3978    6.5455 H   0  0  0  0  0  0  0  0  0  0  0  0
    2.3599   18.1060    7.8223 H   0  0  0  0  0  0  0  0  0  0  0  0
    5.6163   12.8517    7.3236 H   0  0  0  0  0  0  0  0  0  0  0  0
    4.2867   12.6926    9.1270 H   0  0  0  0  0  0  0  0  0  0  0  0
    1.9209   13.6748   12.5170 H   0  0  0  0  0  0  0  0  0  0  0  0
    0.2768   14.0168   14.3484 H   0  0  0  0  0  0  0  0  0  0  0  0
   -1.5757   15.6636   14.0782 H   0  0  0  0  0  0  0  0  0  0  0  0
   -1.7734   16.9710   11.9643 H   0  0  0  0  0  0  0  0  0  0  0  0
   -0.1320   16.6321   10.1281 H   0  0  0  0  0  0  0  0  0  0  0  0
  1  2  1  0
  2  3  1  0
  3  4  1  0
  4  5  1  0
  5  6  2  0
  6  7  1  0
  7  8  1  0
  7  9  2  0
  9 10  1  0
 10 11  2  0
 11 12  1  0
  3 13  1  0
 13 14  2  0
 13 15  1  0
 15 16  1  0
 16 17  1  0
 17 18  2  0
 17 19  1  0
 19 20  1  0
 20 21  1  0
 20 22  1  0
 19 23  1  0
 23 24  2  0
 24 25  1  0
 25 26  2  0
 26 27  1  0
 27 28  2  0
 28 29  1  0
 29 30  2  0
 30 31  1  0
 31 32  2  0
 26 33  1  0
 33 34  2  0
 11  5  1  0
 34 16  1  0
 34 23  1  0
 32 27  1  0
  1 35  1  0
  1 36  1  0
  1 37  1  0
  2 38  1  0
  2 39  1  0
  4 40  1  0
  4 41  1  0
  6 42  1  0
  9 43  1  0
 10 44  1  0
 15 45  1  0
 15 46  1  0
 20 47  1  0
 24 48  1  0
 28 49  1  0
 29 50  1  0
 30 51  1  0
 31 52  1  0
 32 53  1  0
M  END
>  <meeko>  (2) 
{"is_sidechain": [false], "free_energy": -5.519, "intermolecular_energy": -8.024, "internal_energy": -3.226}

$$$$
A7_fine14_out
     RDKit          3D

 53 56  0  0  0  0  0  0  0  0999 V2000
    1.7020   18.2060    4.7980 C   0  0  0  0  0  0  0  0  0  0  0  0
    0.6410   18.4930    5.8490 C   0  0  0  0  0  0  0  0  0  0  0  0
    0.2730   17.2900    6.5960 N   0  0  0  0  0  0  0  0  0  0  0  0
   -0.3210   16.1870    5.8360 C   0  0  0  0  0  0  0  0  0  0  0  0
    0.3300   14.8560    6.1020 C   0  0  0  0  0  0  0  0  0  0  0  0
    1.4680   14.4270    5.4010 C   0  0  0  0  0  0  0  0  0  0  0  0
    2.0160   13.1730    5.6590 C   0  0  0  0  0  0  0  0  0  0  0  0
    3.1040   12.7800    4.9850 F   0  0  0  0  0  0  0  0  0  0  0  0
    1.4500   12.3190    6.6010 C   0  0  0  0  0  0  0  0  0  0  0  0
    0.3120   12.7250    7.2920 C   0  0  0  0  0  0  0  0  0  0  0  0
   -0.2390   13.9790    7.0350 C   0  0  0  0  0  0  0  0  0  0  0  0
   -1.3380   14.3490    7.7080 F   0  0  0  0  0  0  0  0  0  0  0  0
    0.2990   17.3490    7.9920 C   0  0  0  0  0  0  0  0  0  0  0  0
   -0.7330   17.2040    8.6550 O   0  0  0  0  0  0  0  0  0  0  0  0
    1.6470   17.6550    8.6670 C   0  0  0  0  0  0  0  0  0  0  0  0
    2.3600   16.4380    8.9460 N   0  0  0  0  0  0  0  0  0  0  0  0
    2.0210   15.4800    9.9140 C   0  0  0  0  0  0  0  0  0  0  0  0
    1.1780   15.5860   10.7900 O   0  0  0  0  0  0  0  0  0  0  0  0
    2.8480   14.3810    9.6820 N   0  0  0  0  0  0  0  0  0  0  0  0
    2.8750   13.2150   10.4830 C   0  0  0  0  0  0  0  0  0  0  0  0
    2.6900   12.1140    9.7100 F   0  0  0  0  0  0  0  0  0  0  0  0
    4.1050   13.0830   11.0430 F   0  0  0  0  0  0  0  0  0  0  0  0
    3.6630   14.6580    8.5890 C   0  0  0  0  0  0  0  0  0  0  0  0
    4.6320   13.9700    7.9340 C   0  0  0  0  0  0  0  0  0  0  0  0
    5.2520   14.5120    6.8620 N   0  0  0  0  0  0  0  0  0  0  0  0
    4.8670   15.7590    6.4590 C   0  0  0  0  0  0  0  0  0  0  0  0
    5.5450   16.3350    5.2780 C   0  0  0  0  0  0  0  0  0  0  0  0
    6.4860   15.5960    4.5340 C   0  0  0  0  0  0  0  0  0  0  0  0
    7.1290   16.1400    3.4180 C   0  0  0  0  0  0  0  0  0  0  0  0
    6.8460   17.4420    3.0160 C   0  0  0  0  0  0  0  0  0  0  0  0
    5.9230   18.1990    3.7310 C   0  0  0  0  0  0  0  0  0  0  0  0
    5.2830   17.6500    4.8470 C   0  0  0  0  0  0  0  0  0  0  0  0
    3.9180   16.5090    7.0640 N   0  0  0  0  0  0  0  0  0  0  0  0
    3.3550   15.9130    8.1130 C   0  0  0  0  0  0  0  0  0  0  0  0
    2.6497   17.9497    5.2942 H   0  0  0  0  0  0  0  0  0  0  0  0
    1.3774   17.3634    4.1698 H   0  0  0  0  0  0  0  0  0  0  0  0
    1.8464   19.0974    4.1698 H   0  0  0  0  0  0  0  0  0  0  0  0
    1.0313   19.2430    6.5527 H   0  0  0  0  0  0  0  0  0  0  0  0
   -0.2579   18.8624    5.3337 H   0  0  0  0  0  0  0  0  0  0  0  0
   -1.3855   16.1136    6.1031 H   0  0  0  0  0  0  0  0  0  0  0  0
   -0.1733   16.4122    4.7695 H   0  0  0  0  0  0  0  0  0  0  0  0
    1.9277   15.0824    4.6466 H   0  0  0  0  0  0  0  0  0  0  0  0
    1.8973   11.3334    6.7974 H   0  0  0  0  0  0  0  0  0  0  0  0
   -0.1498   12.0599    8.0366 H   0  0  0  0  0  0  0  0  0  0  0  0
    2.2524   18.2835    7.9973 H   0  0  0  0  0  0  0  0  0  0  0  0
    1.4583   18.1811    9.6144 H   0  0  0  0  0  0  0  0  0  0  0  0
    2.0854   13.3033   11.2437 H   0  0  0  0  0  0  0  0  0  0  0  0
    4.9150   12.9641    8.2778 H   0  0  0  0  0  0  0  0  0  0  0  0
    6.7206   14.5654    4.8387 H   0  0  0  0  0  0  0  0  0  0  0  0
    7.8593   15.5383    2.8571 H   0  0  0  0  0  0  0  0  0  0  0  0
    7.3497   17.8707    2.1371 H   0  0  0  0  0  0  0  0  0  0  0  0
    5.6967   19.2291    3.4186 H   0  0  0  0  0  0  0  0  0  0  0  0
    4.5563   18.2611    5.4024 H   0  0  0  0  0  0  0  0  0  0  0  0
  1  2  1  0
  2  3  1  0
  3  4  1  0
  4  5  1  0
  5  6  2  0
  6  7  1  0
  7  8  1  0
  7  9  2  0
  9 10  1  0
 10 11  2  0
 11 12  1  0
  3 13  1  0
 13 14  2  0
 13 15  1  0
 15 16  1  0
 16 17  1  0
 17 18  2  0
 17 19  1  0
 19 20  1  0
 20 21  1  0
 20 22  1  0
 19 23  1  0
 23 24  2  0
 24 25  1  0
 25 26  2  0
 26 27  1  0
 27 28  2  0
 28 29  1  0
 29 30  2  0
 30 31  1  0
 31 32  2  0
 26 33  1  0
 33 34  2  0
 11  5  1  0
 34 16  1  0
 34 23  1  0
 32 27  1  0
  1 35  1  0
  1 36  1  0
  1 37  1  0
  2 38  1  0
  2 39  1  0
  4 40  1  0
  4 41  1  0
  6 42  1  0
  9 43  1  0
 10 44  1  0
 15 45  1  0
 15 46  1  0
 20 47  1  0
 24 48  1  0
 28 49  1  0
 29 50  1  0
 30 51  1  0
 31 52  1  0
 32 53  1  0
M  END
>  <meeko>  (3) 
{"is_sidechain": [false], "free_energy": -5.2, "intermolecular_energy": -7.656, "internal_energy": -3.126}

$$$$
A7_fine14_out
     RDKit          3D

 53 56  0  0  0  0  0  0  0  0999 V2000
    5.5530   17.4560    5.2110 C   0  0  0  0  0  0  0  0  0  0  0  0
    6.0190   16.0410    4.9030 C   0  0  0  0  0  0  0  0  0  0  0  0
    5.6710   15.1070    5.9730 N   0  0  0  0  0  0  0  0  0  0  0  0
    4.4710   15.4070    6.7580 C   0  0  0  0  0  0  0  0  0  0  0  0
    3.2030   14.8770    6.1420 C   0  0  0  0  0  0  0  0  0  0  0  0
    3.0500   13.5250    5.7970 C   0  0  0  0  0  0  0  0  0  0  0  0
    1.8710   13.0860    5.1990 C   0  0  0  0  0  0  0  0  0  0  0  0
    1.7390   11.7920    4.8780 F   0  0  0  0  0  0  0  0  0  0  0  0
    0.8310   13.9680    4.9240 C   0  0  0  0  0  0  0  0  0  0  0  0
    0.9760   15.3150    5.2470 C   0  0  0  0  0  0  0  0  0  0  0  0
    2.1550   15.7570    5.8440 C   0  0  0  0  0  0  0  0  0  0  0  0
    2.2760   17.0580    6.1420 F   0  0  0  0  0  0  0  0  0  0  0  0
    6.6070   14.1300    6.3240 C   0  0  0  0  0  0  0  0  0  0  0  0
    7.4670   14.3500    7.1820 O   0  0  0  0  0  0  0  0  0  0  0  0
    6.5590   12.7930    5.5640 C   0  0  0  0  0  0  0  0  0  0  0  0
    7.8850   12.3710    5.1990 N   0  0  0  0  0  0  0  0  0  0  0  0
    8.7300   12.9980    4.2710 C   0  0  0  0  0  0  0  0  0  0  0  0
    8.4370   13.8930    3.4970 O   0  0  0  0  0  0  0  0  0  0  0  0
    9.9770   12.3860    4.4030 N   0  0  0  0  0  0  0  0  0  0  0  0
   11.1040   12.6790    3.5980 C   0  0  0  0  0  0  0  0  0  0  0  0
   12.1720   12.9750    4.3820 F   0  0  0  0  0  0  0  0  0  0  0  0
   11.4480   11.5740    2.8880 F   0  0  0  0  0  0  0  0  0  0  0  0
    9.8970   11.4180    5.3990 C   0  0  0  0  0  0  0  0  0  0  0  0
   10.7800   10.5390    5.9370 C   0  0  0  0  0  0  0  0  0  0  0  0
   10.4000    9.7100    6.9360 N   0  0  0  0  0  0  0  0  0  0  0  0
    9.1130    9.7930    7.3850 C   0  0  0  0  0  0  0  0  0  0  0  0
    8.7140    8.8880    8.4850 C   0  0  0  0  0  0  0  0  0  0  0  0
    9.6370    8.0120    9.0900 C   0  0  0  0  0  0  0  0  0  0  0  0
    9.2610    7.1550   10.1300 C   0  0  0  0  0  0  0  0  0  0  0  0
    7.9480    7.1540   10.5920 C   0  0  0  0  0  0  0  0  0  0  0  0
    7.0130    8.0070   10.0150 C   0  0  0  0  0  0  0  0  0  0  0  0
    7.3940    8.8620    8.9740 C   0  0  0  0  0  0  0  0  0  0  0  0
    8.1740   10.6340    6.8950 N   0  0  0  0  0  0  0  0  0  0  0  0
    8.6180   11.4160    5.9130 C   0  0  0  0  0  0  0  0  0  0  0  0
    5.5064   17.5976    6.3008 H   0  0  0  0  0  0  0  0  0  0  0  0
    6.2609   18.1777    4.7774 H   0  0  0  0  0  0  0  0  0  0  0  0
    4.5548   17.6158    4.7774 H   0  0  0  0  0  0  0  0  0  0  0  0
    5.5437   15.7054    3.9695 H   0  0  0  0  0  0  0  0  0  0  0  0
    7.1147   16.0564    4.8070 H   0  0  0  0  0  0  0  0  0  0  0  0
    4.5868   14.9595    7.7562 H   0  0  0  0  0  0  0  0  0  0  0  0
    4.3772   16.5022    6.8006 H   0  0  0  0  0  0  0  0  0  0  0  0
    3.8622   12.8112    5.9991 H   0  0  0  0  0  0  0  0  0  0  0  0
   -0.0962   13.6054    4.4563 H   0  0  0  0  0  0  0  0  0  0  0  0
    0.1645   16.0259    5.0321 H   0  0  0  0  0  0  0  0  0  0  0  0
    6.1001   12.0277    6.2072 H   0  0  0  0  0  0  0  0  0  0  0  0
    5.9643   12.9264    4.6483 H   0  0  0  0  0  0  0  0  0  0  0  0
   10.8472   13.5239    2.9421 H   0  0  0  0  0  0  0  0  0  0  0  0
   11.8119   10.5004    5.5580 H   0  0  0  0  0  0  0  0  0  0  0  0
   10.6784    8.0017    8.7361 H   0  0  0  0  0  0  0  0  0  0  0  0
   10.0035    6.4815   10.5829 H   0  0  0  0  0  0  0  0  0  0  0  0
    7.6510    6.4813   11.4101 H   0  0  0  0  0  0  0  0  0  0  0  0
    5.9742    8.0098   10.3767 H   0  0  0  0  0  0  0  0  0  0  0  0
    6.6433    9.5302    8.5269 H   0  0  0  0  0  0  0  0  0  0  0  0
  1  2  1  0
  2  3  1  0
  3  4  1  0
  4  5  1  0
  5  6  2  0
  6  7  1  0
  7  8  1  0
  7  9  2  0
  9 10  1  0
 10 11  2  0
 11 12  1  0
  3 13  1  0
 13 14  2  0
 13 15  1  0
 15 16  1  0
 16 17  1  0
 17 18  2  0
 17 19  1  0
 19 20  1  0
 20 21  1  0
 20 22  1  0
 19 23  1  0
 23 24  2  0
 24 25  1  0
 25 26  2  0
 26 27  1  0
 27 28  2  0
 28 29  1  0
 29 30  2  0
 30 31  1  0
 31 32  2  0
 26 33  1  0
 33 34  2  0
 11  5  1  0
 34 16  1  0
 34 23  1  0
 32 27  1  0
  1 35  1  0
  1 36  1  0
  1 37  1  0
  2 38  1  0
  2 39  1  0
  4 40  1  0
  4 41  1  0
  6 42  1  0
  9 43  1  0
 10 44  1  0
 15 45  1  0
 15 46  1  0
 20 47  1  0
 24 48  1  0
 28 49  1  0
 29 50  1  0
 30 51  1  0
 31 52  1  0
 32 53  1  0
M  END
>  <meeko>  (4) 
{"is_sidechain": [false], "free_energy": -5.151, "intermolecular_energy": -9.272, "internal_energy": -1.439}

$$$$
A7_fine14_out
     RDKit          3D

 53 56  0  0  0  0  0  0  0  0999 V2000
    5.9150   14.1030    8.8200 C   0  0  0  0  0  0  0  0  0  0  0  0
    5.1130   15.3420    8.4550 C   0  0  0  0  0  0  0  0  0  0  0  0
    4.5700   15.2610    7.0990 N   0  0  0  0  0  0  0  0  0  0  0  0
    4.2900   13.9240    6.5710 C   0  0  0  0  0  0  0  0  0  0  0  0
    2.8200   13.6060    6.4900 C   0  0  0  0  0  0  0  0  0  0  0  0
    2.0600   13.8740    5.3420 C   0  0  0  0  0  0  0  0  0  0  0  0
    0.6960   13.5940    5.3250 C   0  0  0  0  0  0  0  0  0  0  0  0
   -0.0150   13.8520    4.2200 F   0  0  0  0  0  0  0  0  0  0  0  0
    0.0570   13.0560    6.4380 C   0  0  0  0  0  0  0  0  0  0  0  0
    0.7960   12.8000    7.5910 C   0  0  0  0  0  0  0  0  0  0  0  0
    2.1610   13.0810    7.6100 C   0  0  0  0  0  0  0  0  0  0  0  0
    2.8540   12.8330    8.7300 F   0  0  0  0  0  0  0  0  0  0  0  0
    4.5650   16.4230    6.3230 C   0  0  0  0  0  0  0  0  0  0  0  0
    5.1640   16.4710    5.2440 O   0  0  0  0  0  0  0  0  0  0  0  0
    3.8340   17.6540    6.8870 C   0  0  0  0  0  0  0  0  0  0  0  0
    2.4370   17.6120    6.5460 N   0  0  0  0  0  0  0  0  0  0  0  0
    1.8780   17.9100    5.2940 C   0  0  0  0  0  0  0  0  0  0  0  0
    2.4430   18.4130    4.3370 O   0  0  0  0  0  0  0  0  0  0  0  0
    0.5390   17.5240    5.3620 N   0  0  0  0  0  0  0  0  0  0  0  0
   -0.4040   17.7160    4.3250 C   0  0  0  0  0  0  0  0  0  0  0  0
   -0.9350   16.5220    3.9520 F   0  0  0  0  0  0  0  0  0  0  0  0
   -1.4380   18.4630    4.7900 F   0  0  0  0  0  0  0  0  0  0  0  0
    0.2920   16.9900    6.6220 C   0  0  0  0  0  0  0  0  0  0  0  0
   -0.8040   16.4680    7.2290 C   0  0  0  0  0  0  0  0  0  0  0  0
   -0.7280   15.9990    8.4960 N   0  0  0  0  0  0  0  0  0  0  0  0
    0.4790   16.0600    9.1320 C   0  0  0  0  0  0  0  0  0  0  0  0
    0.5500   15.5330   10.5120 C   0  0  0  0  0  0  0  0  0  0  0  0
    1.6420   14.7550   10.9480 C   0  0  0  0  0  0  0  0  0  0  0  0
    1.7110   14.2560   12.2530 C   0  0  0  0  0  0  0  0  0  0  0  0
    0.6860   14.5220   13.1560 C   0  0  0  0  0  0  0  0  0  0  0  0
   -0.4060   15.2850   12.7560 C   0  0  0  0  0  0  0  0  0  0  0  0
   -0.4710   15.7820   11.4490 C   0  0  0  0  0  0  0  0  0  0  0  0
    1.6110   16.5720    8.5980 N   0  0  0  0  0  0  0  0  0  0  0  0
    1.4600   17.0170    7.3520 C   0  0  0  0  0  0  0  0  0  0  0  0
    5.9731   14.0132    9.9148 H   0  0  0  0  0  0  0  0  0  0  0  0
    5.4221   13.2116    8.4046 H   0  0  0  0  0  0  0  0  0  0  0  0
    6.9300   14.1877    8.4046 H   0  0  0  0  0  0  0  0  0  0  0  0
    4.2802   15.4486    9.1657 H   0  0  0  0  0  0  0  0  0  0  0  0
    5.7872   16.2100    8.5007 H   0  0  0  0  0  0  0  0  0  0  0  0
    4.7180   13.8521    5.5603 H   0  0  0  0  0  0  0  0  0  0  0  0
    4.7398   13.2005    7.2669 H   0  0  0  0  0  0  0  0  0  0  0  0
    2.5425   14.3064    4.4531 H   0  0  0  0  0  0  0  0  0  0  0  0
   -1.0202   12.8352    6.4078 H   0  0  0  0  0  0  0  0  0  0  0  0
    0.3052   12.3787    8.4808 H   0  0  0  0  0  0  0  0  0  0  0  0
    3.9389   17.6668    7.9819 H   0  0  0  0  0  0  0  0  0  0  0  0
    4.2787   18.5613    6.4522 H   0  0  0  0  0  0  0  0  0  0  0  0
    0.1071   18.2044    3.4822 H   0  0  0  0  0  0  0  0  0  0  0  0
   -1.7605   16.4259    6.6873 H   0  0  0  0  0  0  0  0  0  0  0  0
    2.4592   14.5352   10.2452 H   0  0  0  0  0  0  0  0  0  0  0  0
    2.5761   13.6529   12.5657 H   0  0  0  0  0  0  0  0  0  0  0  0
    0.7393   14.1302   14.1825 H   0  0  0  0  0  0  0  0  0  0  0  0
   -1.2183   15.4978   13.4665 H   0  0  0  0  0  0  0  0  0  0  0  0
   -1.3417   16.3822   11.1463 H   0  0  0  0  0  0  0  0  0  0  0  0
  1  2  1  0
  2  3  1  0
  3  4  1  0
  4  5  1  0
  5  6  2  0
  6  7  1  0
  7  8  1  0
  7  9  2  0
  9 10  1  0
 10 11  2  0
 11 12  1  0
  3 13  1  0
 13 14  2  0
 13 15  1  0
 15 16  1  0
 16 17  1  0
 17 18  2  0
 17 19  1  0
 19 20  1  0
 20 21  1  0
 20 22  1  0
 19 23  1  0
 23 24  2  0
 24 25  1  0
 25 26  2  0
 26 27  1  0
 27 28  2  0
 28 29  1  0
 29 30  2  0
 30 31  1  0
 31 32  2  0
 26 33  1  0
 33 34  2  0
 11  5  1  0
 34 16  1  0
 34 23  1  0
 32 27  1  0
  1 35  1  0
  1 36  1  0
  1 37  1  0
  2 38  1  0
  2 39  1  0
  4 40  1  0
  4 41  1  0
  6 42  1  0
  9 43  1  0
 10 44  1  0
 15 45  1  0
 15 46  1  0
 20 47  1  0
 24 48  1  0
 28 49  1  0
 29 50  1  0
 30 51  1  0
 31 52  1  0
 32 53  1  0
M  END
>  <meeko>  (5) 
{"is_sidechain": [false], "free_energy": -5.08, "intermolecular_energy": -7.321, "internal_energy": -3.286}

$$$$
A7_fine14_out
     RDKit          3D

 53 56  0  0  0  0  0  0  0  0999 V2000
    3.6810   17.8900    8.4750 C   0  0  0  0  0  0  0  0  0  0  0  0
    3.5440   16.4280    8.8730 C   0  0  0  0  0  0  0  0  0  0  0  0
    4.3580   15.5540    8.0280 N   0  0  0  0  0  0  0  0  0  0  0  0
    4.2220   15.7100    6.5780 C   0  0  0  0  0  0  0  0  0  0  0  0
    2.9990   15.0360    6.0140 C   0  0  0  0  0  0  0  0  0  0  0  0
    2.9620   13.6600    5.7430 C   0  0  0  0  0  0  0  0  0  0  0  0
    1.8200   13.0860    5.1910 C   0  0  0  0  0  0  0  0  0  0  0  0
    1.7990   11.7710    4.9410 F   0  0  0  0  0  0  0  0  0  0  0  0
    0.7020   13.8570    4.8880 C   0  0  0  0  0  0  0  0  0  0  0  0
    0.7300   15.2270    5.1370 C   0  0  0  0  0  0  0  0  0  0  0  0
    1.8720   15.8030    5.6880 C   0  0  0  0  0  0  0  0  0  0  0  0
    1.8810   17.1240    5.9150 F   0  0  0  0  0  0  0  0  0  0  0  0
    5.0290   14.4910    8.6380 C   0  0  0  0  0  0  0  0  0  0  0  0
    4.4150   13.5040    9.0570 O   0  0  0  0  0  0  0  0  0  0  0  0
    6.5520   14.6190    8.8170 C   0  0  0  0  0  0  0  0  0  0  0  0
    7.2110   13.3990    8.4330 N   0  0  0  0  0  0  0  0  0  0  0  0
    7.4530   12.2910    9.2590 C   0  0  0  0  0  0  0  0  0  0  0  0
    7.3060   12.2290   10.4690 O   0  0  0  0  0  0  0  0  0  0  0  0
    7.9060   11.2710    8.4220 N   0  0  0  0  0  0  0  0  0  0  0  0
    8.3290    9.9960    8.8670 C   0  0  0  0  0  0  0  0  0  0  0  0
    7.8420    9.0310    8.0450 F   0  0  0  0  0  0  0  0  0  0  0  0
    9.6810    9.9180    8.7860 F   0  0  0  0  0  0  0  0  0  0  0  0
    7.9260   11.7430    7.1140 C   0  0  0  0  0  0  0  0  0  0  0  0
    8.2670   11.2010    5.9180 C   0  0  0  0  0  0  0  0  0  0  0  0
    8.1610   11.9250    4.7810 N   0  0  0  0  0  0  0  0  0  0  0  0
    7.6950   13.2050    4.8760 C   0  0  0  0  0  0  0  0  0  0  0  0
    7.5730   13.9820    3.6230 C   0  0  0  0  0  0  0  0  0  0  0  0
    7.4080   15.3810    3.6370 C   0  0  0  0  0  0  0  0  0  0  0  0
    7.2920   16.1180    2.4540 C   0  0  0  0  0  0  0  0  0  0  0  0
    7.3370   15.4700    1.2230 C   0  0  0  0  0  0  0  0  0  0  0  0
    7.4970   14.0890    1.1750 C   0  0  0  0  0  0  0  0  0  0  0  0
    7.6120   13.3570    2.3620 C   0  0  0  0  0  0  0  0  0  0  0  0
    7.3440   13.8170    6.0290 N   0  0  0  0  0  0  0  0  0  0  0  0
    7.4780   13.0460    7.1060 C   0  0  0  0  0  0  0  0  0  0  0  0
    3.7393   18.5125    9.3801 H   0  0  0  0  0  0  0  0  0  0  0  0
    4.5956   18.0235    7.8786 H   0  0  0  0  0  0  0  0  0  0  0  0
    2.8071   18.1911    7.8786 H   0  0  0  0  0  0  0  0  0  0  0  0
    3.8659   16.3124    9.9185 H   0  0  0  0  0  0  0  0  0  0  0  0
    2.4903   16.1380    8.7482 H   0  0  0  0  0  0  0  0  0  0  0  0
    4.1655   16.7840    6.3470 H   0  0  0  0  0  0  0  0  0  0  0  0
    5.0979   15.2300    6.1171 H   0  0  0  0  0  0  0  0  0  0  0  0
    3.8375   13.0330    5.9672 H   0  0  0  0  0  0  0  0  0  0  0  0
   -0.1950   13.3891    4.4561 H   0  0  0  0  0  0  0  0  0  0  0  0
   -0.1447   15.8504    4.8999 H   0  0  0  0  0  0  0  0  0  0  0  0
    6.9219   15.4429    8.1890 H   0  0  0  0  0  0  0  0  0  0  0  0
    6.7690   14.8212    9.8763 H   0  0  0  0  0  0  0  0  0  0  0  0
    7.9721    9.8561    9.8981 H   0  0  0  0  0  0  0  0  0  0  0  0
    8.6326   10.1645    5.8729 H   0  0  0  0  0  0  0  0  0  0  0  0
    7.3694   15.9068    4.6024 H   0  0  0  0  0  0  0  0  0  0  0  0
    7.1652   17.2098    2.4964 H   0  0  0  0  0  0  0  0  0  0  0  0
    7.2464   16.0479    0.2914 H   0  0  0  0  0  0  0  0  0  0  0  0
    7.5331   13.5726    0.2044 H   0  0  0  0  0  0  0  0  0  0  0  0
    7.7360   12.2653    2.3085 H   0  0  0  0  0  0  0  0  0  0  0  0
  1  2  1  0
  2  3  1  0
  3  4  1  0
  4  5  1  0
  5  6  2  0
  6  7  1  0
  7  8  1  0
  7  9  2  0
  9 10  1  0
 10 11  2  0
 11 12  1  0
  3 13  1  0
 13 14  2  0
 13 15  1  0
 15 16  1  0
 16 17  1  0
 17 18  2  0
 17 19  1  0
 19 20  1  0
 20 21  1  0
 20 22  1  0
 19 23  1  0
 23 24  2  0
 24 25  1  0
 25 26  2  0
 26 27  1  0
 27 28  2  0
 28 29  1  0
 29 30  2  0
 30 31  1  0
 31 32  2  0
 26 33  1  0
 33 34  2  0
 11  5  1  0
 34 16  1  0
 34 23  1  0
 32 27  1  0
  1 35  1  0
  1 36  1  0
  1 37  1  0
  2 38  1  0
  2 39  1  0
  4 40  1  0
  4 41  1  0
  6 42  1  0
  9 43  1  0
 10 44  1  0
 15 45  1  0
 15 46  1  0
 20 47  1  0
 24 48  1  0
 28 49  1  0
 29 50  1  0
 30 51  1  0
 31 52  1  0
 32 53  1  0
M  END
>  <meeko>  (6) 
{"is_sidechain": [false], "free_energy": -4.997, "intermolecular_energy": -8.665, "internal_energy": -1.819}

$$$$
A7_fine14_out
     RDKit          3D

 53 56  0  0  0  0  0  0  0  0999 V2000
    6.8670   15.8490    4.1610 C   0  0  0  0  0  0  0  0  0  0  0  0
    6.6220   14.4250    4.6370 C   0  0  0  0  0  0  0  0  0  0  0  0
    6.0970   14.3890    6.0020 N   0  0  0  0  0  0  0  0  0  0  0  0
    5.0460   15.3530    6.3400 C   0  0  0  0  0  0  0  0  0  0  0  0
    3.6670   14.9010    5.9390 C   0  0  0  0  0  0  0  0  0  0  0  0
    3.3670   13.5540    5.6820 C   0  0  0  0  0  0  0  0  0  0  0  0
    2.0850   13.1870    5.2820 C   0  0  0  0  0  0  0  0  0  0  0  0
    1.8140   11.8970    5.0450 F   0  0  0  0  0  0  0  0  0  0  0  0
    1.0820   14.1380    5.1180 C   0  0  0  0  0  0  0  0  0  0  0  0
    1.3690   15.4800    5.3540 C   0  0  0  0  0  0  0  0  0  0  0  0
    2.6520   15.8490    5.7530 C   0  0  0  0  0  0  0  0  0  0  0  0
    2.9100   17.1470    5.9690 F   0  0  0  0  0  0  0  0  0  0  0  0
    6.7720   13.6100    6.9460 C   0  0  0  0  0  0  0  0  0  0  0  0
    7.2280   12.5020    6.6490 O   0  0  0  0  0  0  0  0  0  0  0  0
    6.8770   14.1600    8.3790 C   0  0  0  0  0  0  0  0  0  0  0  0
    6.2500   13.2640    9.3130 N   0  0  0  0  0  0  0  0  0  0  0  0
    6.9000   12.3250   10.1280 C   0  0  0  0  0  0  0  0  0  0  0  0
    8.0710   11.9860   10.0690 O   0  0  0  0  0  0  0  0  0  0  0  0
    5.9380   11.8450   11.0170 N   0  0  0  0  0  0  0  0  0  0  0  0
    6.1640   10.8260   11.9720 C   0  0  0  0  0  0  0  0  0  0  0  0
    5.9020   11.2910   13.2210 F   0  0  0  0  0  0  0  0  0  0  0  0
    5.2950    9.8070   11.7550 F   0  0  0  0  0  0  0  0  0  0  0  0
    4.7310   12.4890   10.7580 C   0  0  0  0  0  0  0  0  0  0  0  0
    3.4890   12.4210   11.2990 C   0  0  0  0  0  0  0  0  0  0  0  0
    2.4940   13.2080   10.8310 N   0  0  0  0  0  0  0  0  0  0  0  0
    2.7810   14.0700    9.8120 C   0  0  0  0  0  0  0  0  0  0  0  0
    1.6860   14.9330    9.3170 C   0  0  0  0  0  0  0  0  0  0  0  0
    0.4780   14.3880    8.8390 C   0  0  0  0  0  0  0  0  0  0  0  0
   -0.5580   15.2020    8.3700 C   0  0  0  0  0  0  0  0  0  0  0  0
   -0.4110   16.5860    8.3680 C   0  0  0  0  0  0  0  0  0  0  0  0
    0.7710   17.1540    8.8330 C   0  0  0  0  0  0  0  0  0  0  0  0
    1.8050   16.3360    9.3000 C   0  0  0  0  0  0  0  0  0  0  0  0
    3.9890   14.1890    9.2160 N   0  0  0  0  0  0  0  0  0  0  0  0
    4.9180   13.3820    9.7260 C   0  0  0  0  0  0  0  0  0  0  0  0
    6.9811   16.5120    5.0313 H   0  0  0  0  0  0  0  0  0  0  0  0
    7.7837   15.8800    3.5538 H   0  0  0  0  0  0  0  0  0  0  0  0
    6.0134   16.1846    3.5538 H   0  0  0  0  0  0  0  0  0  0  0  0
    5.8963   13.9450    3.9640 H   0  0  0  0  0  0  0  0  0  0  0  0
    7.5842   13.8920    4.6276 H   0  0  0  0  0  0  0  0  0  0  0  0
    5.0574   15.5136    7.4281 H   0  0  0  0  0  0  0  0  0  0  0  0
    5.2602   16.2756    5.7806 H   0  0  0  0  0  0  0  0  0  0  0  0
    4.1467   12.7866    5.7969 H   0  0  0  0  0  0  0  0  0  0  0  0
    0.0727   13.8325    4.8051 H   0  0  0  0  0  0  0  0  0  0  0  0
    0.5879   16.2439    5.2263 H   0  0  0  0  0  0  0  0  0  0  0  0
    7.9381   14.2749    8.6451 H   0  0  0  0  0  0  0  0  0  0  0  0
    6.3657   15.1329    8.4235 H   0  0  0  0  0  0  0  0  0  0  0  0
    7.2101   10.4979   11.8829 H   0  0  0  0  0  0  0  0  0  0  0  0
    3.2899   11.7210   12.1239 H   0  0  0  0  0  0  0  0  0  0  0  0
    0.3465   13.2959    8.8346 H   0  0  0  0  0  0  0  0  0  0  0  0
   -1.4900   14.7479    8.0023 H   0  0  0  0  0  0  0  0  0  0  0  0
   -1.2254   17.2277    8.0006 H   0  0  0  0  0  0  0  0  0  0  0  0
    0.8924   18.2473    8.8333 H   0  0  0  0  0  0  0  0  0  0  0  0
    2.7339   16.8001    9.6629 H   0  0  0  0  0  0  0  0  0  0  0  0
  1  2  1  0
  2  3  1  0
  3  4  1  0
  4  5  1  0
  5  6  2  0
  6  7  1  0
  7  8  1  0
  7  9  2  0
  9 10  1  0
 10 11  2  0
 11 12  1  0
  3 13  1  0
 13 14  2  0
 13 15  1  0
 15 16  1  0
 16 17  1  0
 17 18  2  0
 17 19  1  0
 19 20  1  0
 20 21  1  0
 20 22  1  0
 19 23  1  0
 23 24  2  0
 24 25  1  0
 25 26  2  0
 26 27  1  0
 27 28  2  0
 28 29  1  0
 29 30  2  0
 30 31  1  0
 31 32  2  0
 26 33  1  0
 33 34  2  0
 11  5  1  0
 34 16  1  0
 34 23  1  0
 32 27  1  0
  1 35  1  0
  1 36  1  0
  1 37  1  0
  2 38  1  0
  2 39  1  0
  4 40  1  0
  4 41  1  0
  6 42  1  0
  9 43  1  0
 10 44  1  0
 15 45  1  0
 15 46  1  0
 20 47  1  0
 24 48  1  0
 28 49  1  0
 29 50  1  0
 30 51  1  0
 31 52  1  0
 32 53  1  0
M  END
>  <meeko>  (7) 
{"is_sidechain": [false], "free_energy": -4.932, "intermolecular_energy": -7.456, "internal_energy": -2.933}

$$$$
A7_fine14_out
     RDKit          3D

 53 56  0  0  0  0  0  0  0  0999 V2000
    6.1430   16.5720    8.1790 C   0  0  0  0  0  0  0  0  0  0  0  0
    6.2790   15.0680    7.9950 C   0  0  0  0  0  0  0  0  0  0  0  0
    5.2140   14.3350    8.6800 N   0  0  0  0  0  0  0  0  0  0  0  0
    3.8460   14.8310    8.5100 C   0  0  0  0  0  0  0  0  0  0  0  0
    3.0260   14.0100    7.5500 C   0  0  0  0  0  0  0  0  0  0  0  0
    2.0260   13.1270    7.9870 C   0  0  0  0  0  0  0  0  0  0  0  0
    1.3150   12.3640    7.0650 C   0  0  0  0  0  0  0  0  0  0  0  0
    0.3620   11.5290    7.4970 F   0  0  0  0  0  0  0  0  0  0  0  0
    1.5820   12.4490    5.7020 C   0  0  0  0  0  0  0  0  0  0  0  0
    2.5820   13.3090    5.2550 C   0  0  0  0  0  0  0  0  0  0  0  0
    3.2950   14.0730    6.1770 C   0  0  0  0  0  0  0  0  0  0  0  0
    4.2570   14.8910    5.7270 F   0  0  0  0  0  0  0  0  0  0  0  0
    5.5810   13.3660    9.6180 C   0  0  0  0  0  0  0  0  0  0  0  0
    4.7300   12.6850   10.1970 O   0  0  0  0  0  0  0  0  0  0  0  0
    7.0790   13.2180    9.9390 C   0  0  0  0  0  0  0  0  0  0  0  0
    7.5050   11.8580    9.7490 N   0  0  0  0  0  0  0  0  0  0  0  0
    7.3750   10.8100   10.6740 C   0  0  0  0  0  0  0  0  0  0  0  0
    7.0430   10.8990   11.8450 O   0  0  0  0  0  0  0  0  0  0  0  0
    7.7120    9.6410    9.9910 N   0  0  0  0  0  0  0  0  0  0  0  0
    7.7770    8.3570   10.5810 C   0  0  0  0  0  0  0  0  0  0  0  0
    6.7790    7.5720   10.0990 F   0  0  0  0  0  0  0  0  0  0  0  0
    8.9400    7.7560   10.2230 F   0  0  0  0  0  0  0  0  0  0  0  0
    8.0260    9.9680    8.6750 C   0  0  0  0  0  0  0  0  0  0  0  0
    8.4120    9.2520    7.5900 C   0  0  0  0  0  0  0  0  0  0  0  0
    8.6340    9.8670    6.4060 N   0  0  0  0  0  0  0  0  0  0  0  0
    8.4490   11.2180    6.3390 C   0  0  0  0  0  0  0  0  0  0  0  0
    8.6840   11.8760    5.0360 C   0  0  0  0  0  0  0  0  0  0  0  0
    9.9860   12.0620    4.5280 C   0  0  0  0  0  0  0  0  0  0  0  0
   10.2100   12.6850    3.2960 C   0  0  0  0  0  0  0  0  0  0  0  0
    9.1340   13.1400    2.5390 C   0  0  0  0  0  0  0  0  0  0  0  0
    7.8370   12.9720    3.0130 C   0  0  0  0  0  0  0  0  0  0  0  0
    7.6180   12.3490    4.2470 C   0  0  0  0  0  0  0  0  0  0  0  0
    8.0750   12.0000    7.3770 N   0  0  0  0  0  0  0  0  0  0  0  0
    7.8790   11.3280    8.5090 C   0  0  0  0  0  0  0  0  0  0  0  0
    6.1215   16.8096    9.2528 H   0  0  0  0  0  0  0  0  0  0  0  0
    6.9991   17.0778    7.7086 H   0  0  0  0  0  0  0  0  0  0  0  0
    5.2101   16.9161    7.7086 H   0  0  0  0  0  0  0  0  0  0  0  0
    6.2359   14.8360    6.9206 H   0  0  0  0  0  0  0  0  0  0  0  0
    7.2404   14.7573    8.4301 H   0  0  0  0  0  0  0  0  0  0  0  0
    3.3475   14.8216    9.4905 H   0  0  0  0  0  0  0  0  0  0  0  0
    3.9186   15.8449    8.0896 H   0  0  0  0  0  0  0  0  0  0  0  0
    1.8037   13.0378    9.0606 H   0  0  0  0  0  0  0  0  0  0  0  0
    1.0089   11.8430    4.9848 H   0  0  0  0  0  0  0  0  0  0  0  0
    2.8076   13.3848    4.1811 H   0  0  0  0  0  0  0  0  0  0  0  0
    7.6581   13.8747    9.2731 H   0  0  0  0  0  0  0  0  0  0  0  0
    7.2461   13.4987   10.9894 H   0  0  0  0  0  0  0  0  0  0  0  0
    7.6968    8.4761   11.6716 H   0  0  0  0  0  0  0  0  0  0  0  0
    8.5455    8.1633    7.6734 H   0  0  0  0  0  0  0  0  0  0  0  0
   10.8466   11.7085    5.1149 H   0  0  0  0  0  0  0  0  0  0  0  0
   11.2373   12.8156    2.9249 H   0  0  0  0  0  0  0  0  0  0  0  0
    9.3086   13.6304    1.5700 H   0  0  0  0  0  0  0  0  0  0  0  0
    6.9835   13.3288    2.4179 H   0  0  0  0  0  0  0  0  0  0  0  0
    6.5869   12.2257    4.6097 H   0  0  0  0  0  0  0  0  0  0  0  0
  1  2  1  0
  2  3  1  0
  3  4  1  0
  4  5  1  0
  5  6  2  0
  6  7  1  0
  7  8  1  0
  7  9  2  0
  9 10  1  0
 10 11  2  0
 11 12  1  0
  3 13  1  0
 13 14  2  0
 13 15  1  0
 15 16  1  0
 16 17  1  0
 17 18  2  0
 17 19  1  0
 19 20  1  0
 20 21  1  0
 20 22  1  0
 19 23  1  0
 23 24  2  0
 24 25  1  0
 25 26  2  0
 26 27  1  0
 27 28  2  0
 28 29  1  0
 29 30  2  0
 30 31  1  0
 31 32  2  0
 26 33  1  0
 33 34  2  0
 11  5  1  0
 34 16  1  0
 34 23  1  0
 32 27  1  0
  1 35  1  0
  1 36  1  0
  1 37  1  0
  2 38  1  0
  2 39  1  0
  4 40  1  0
  4 41  1  0
  6 42  1  0
  9 43  1  0
 10 44  1  0
 15 45  1  0
 15 46  1  0
 20 47  1  0
 24 48  1  0
 28 49  1  0
 29 50  1  0
 30 51  1  0
 31 52  1  0
 32 53  1  0
M  END
>  <meeko>  (8) 
{"is_sidechain": [false], "free_energy": -4.896, "intermolecular_energy": -8.66, "internal_energy": -1.675}

$$$$
A7_fine14_out
     RDKit          3D

 53 56  0  0  0  0  0  0  0  0999 V2000
    5.6520   14.0290    8.5400 C   0  0  0  0  0  0  0  0  0  0  0  0
    6.1260   14.7940    7.3130 C   0  0  0  0  0  0  0  0  0  0  0  0
    5.5480   14.2590    6.0800 N   0  0  0  0  0  0  0  0  0  0  0  0
    4.3560   13.4170    6.2110 C   0  0  0  0  0  0  0  0  0  0  0  0
    3.0820   14.1160    5.8160 C   0  0  0  0  0  0  0  0  0  0  0  0
    2.8950   15.4940    6.0100 C   0  0  0  0  0  0  0  0  0  0  0  0
    1.6870   16.0910    5.6590 C   0  0  0  0  0  0  0  0  0  0  0  0
    1.5250   17.4070    5.8470 F   0  0  0  0  0  0  0  0  0  0  0  0
    0.6430   15.3440    5.1230 C   0  0  0  0  0  0  0  0  0  0  0  0
    0.8090   13.9740    4.9400 C   0  0  0  0  0  0  0  0  0  0  0  0
    2.0160   13.3730    5.2910 C   0  0  0  0  0  0  0  0  0  0  0  0
    2.1540   12.0520    5.1120 F   0  0  0  0  0  0  0  0  0  0  0  0
    6.2830   14.3920    4.8990 C   0  0  0  0  0  0  0  0  0  0  0  0
    6.7760   15.4760    4.5730 O   0  0  0  0  0  0  0  0  0  0  0  0
    6.4090   13.1530    3.9960 C   0  0  0  0  0  0  0  0  0  0  0  0
    7.7760   12.7090    3.9330 N   0  0  0  0  0  0  0  0  0  0  0  0
    8.7260   13.0800    2.9690 C   0  0  0  0  0  0  0  0  0  0  0  0
    8.5230   13.6960    1.9350 O   0  0  0  0  0  0  0  0  0  0  0  0
    9.9530   12.5960    3.4230 N   0  0  0  0  0  0  0  0  0  0  0  0
   11.1690   12.6970    2.7080 C   0  0  0  0  0  0  0  0  0  0  0  0
   12.1380   13.2170    3.5070 F   0  0  0  0  0  0  0  0  0  0  0  0
   11.5910   11.4550    2.3590 F   0  0  0  0  0  0  0  0  0  0  0  0
    9.7560   11.9570    4.6430 C   0  0  0  0  0  0  0  0  0  0  0  0
   10.5740   11.3180    5.5180 C   0  0  0  0  0  0  0  0  0  0  0  0
   10.0790   10.7980    6.6640 N   0  0  0  0  0  0  0  0  0  0  0  0
    8.7440   10.9430    6.9120 C   0  0  0  0  0  0  0  0  0  0  0  0
    8.2180   10.3800    8.1740 C   0  0  0  0  0  0  0  0  0  0  0  0
    8.0260   11.1820    9.3160 C   0  0  0  0  0  0  0  0  0  0  0  0
    7.5300   10.6510   10.5110 C   0  0  0  0  0  0  0  0  0  0  0  0
    7.2120    9.2980   10.5930 C   0  0  0  0  0  0  0  0  0  0  0  0
    7.3920    8.4790    9.4830 C   0  0  0  0  0  0  0  0  0  0  0  0
    7.8890    9.0150    8.2900 C   0  0  0  0  0  0  0  0  0  0  0  0
    7.8660   11.5570    6.0870 N   0  0  0  0  0  0  0  0  0  0  0  0
    8.4230   12.0410    4.9780 C   0  0  0  0  0  0  0  0  0  0  0  0
    5.9782   14.5555    9.4490 H   0  0  0  0  0  0  0  0  0  0  0  0
    4.5541   13.9623    8.5290 H   0  0  0  0  0  0  0  0  0  0  0  0
    6.0810   13.0162    8.5290 H   0  0  0  0  0  0  0  0  0  0  0  0
    5.8312   15.8488    7.4156 H   0  0  0  0  0  0  0  0  0  0  0  0
    7.2194   14.6925    7.2492 H   0  0  0  0  0  0  0  0  0  0  0  0
    4.4818   12.5328    5.5689 H   0  0  0  0  0  0  0  0  0  0  0  0
    4.2630   13.1500    7.2740 H   0  0  0  0  0  0  0  0  0  0  0  0
    3.7040   16.1028    6.4399 H   0  0  0  0  0  0  0  0  0  0  0  0
   -0.3039   15.8308    4.8466 H   0  0  0  0  0  0  0  0  0  0  0  0
   -0.0084   13.3692    4.5205 H   0  0  0  0  0  0  0  0  0  0  0  0
    5.7846   12.3440    4.4031 H   0  0  0  0  0  0  0  0  0  0  0  0
    6.0752   13.4179    2.9819 H   0  0  0  0  0  0  0  0  0  0  0  0
   10.9964   13.3330    1.8273 H   0  0  0  0  0  0  0  0  0  0  0  0
   11.6466   11.2226    5.2933 H   0  0  0  0  0  0  0  0  0  0  0  0
    8.2724   12.2529    9.2667 H   0  0  0  0  0  0  0  0  0  0  0  0
    7.3911   11.3025   11.3864 H   0  0  0  0  0  0  0  0  0  0  0  0
    6.8202    8.8785   11.5313 H   0  0  0  0  0  0  0  0  0  0  0  0
    7.1434    7.4092    9.5433 H   0  0  0  0  0  0  0  0  0  0  0  0
    8.0263    8.3544    7.4212 H   0  0  0  0  0  0  0  0  0  0  0  0
  1  2  1  0
  2  3  1  0
  3  4  1  0
  4  5  1  0
  5  6  2  0
  6  7  1  0
  7  8  1  0
  7  9  2  0
  9 10  1  0
 10 11  2  0
 11 12  1  0
  3 13  1  0
 13 14  2  0
 13 15  1  0
 15 16  1  0
 16 17  1  0
 17 18  2  0
 17 19  1  0
 19 20  1  0
 20 21  1  0
 20 22  1  0
 19 23  1  0
 23 24  2  0
 24 25  1  0
 25 26  2  0
 26 27  1  0
 27 28  2  0
 28 29  1  0
 29 30  2  0
 30 31  1  0
 31 32  2  0
 26 33  1  0
 33 34  2  0
 11  5  1  0
 34 16  1  0
 34 23  1  0
 32 27  1  0
  1 35  1  0
  1 36  1  0
  1 37  1  0
  2 38  1  0
  2 39  1  0
  4 40  1  0
  4 41  1  0
  6 42  1  0
  9 43  1  0
 10 44  1  0
 15 45  1  0
 15 46  1  0
 20 47  1  0
 24 48  1  0
 28 49  1  0
 29 50  1  0
 30 51  1  0
 31 52  1  0
 32 53  1  0
M  END
>  <meeko>  (9) 
{"is_sidechain": [false], "free_energy": -4.86, "intermolecular_energy": -8.603, "internal_energy": -1.68}

$$$$
A7_fine14_out
     RDKit          3D

 53 56  0  0  0  0  0  0  0  0999 V2000
    4.8800   14.8620   10.3990 C   0  0  0  0  0  0  0  0  0  0  0  0
    4.9470   15.9320    9.3210 C   0  0  0  0  0  0  0  0  0  0  0  0
    4.7730   15.3690    7.9820 N   0  0  0  0  0  0  0  0  0  0  0  0
    4.3840   13.9590    7.8950 C   0  0  0  0  0  0  0  0  0  0  0  0
    3.0490   13.7450    7.2330 C   0  0  0  0  0  0  0  0  0  0  0  0
    1.8410   13.8330    7.9410 C   0  0  0  0  0  0  0  0  0  0  0  0
    0.6320   13.5940    7.2930 C   0  0  0  0  0  0  0  0  0  0  0  0
   -0.5130   13.6850    7.9830 F   0  0  0  0  0  0  0  0  0  0  0  0
    0.5920   13.2570    5.9440 C   0  0  0  0  0  0  0  0  0  0  0  0
    1.7840   13.1510    5.2320 C   0  0  0  0  0  0  0  0  0  0  0  0
    2.9950   13.3880    5.8790 C   0  0  0  0  0  0  0  0  0  0  0  0
    4.1320   13.2750    5.1770 F   0  0  0  0  0  0  0  0  0  0  0  0
    5.2010   16.1280    6.8890 C   0  0  0  0  0  0  0  0  0  0  0  0
    4.3950   16.7560    6.1940 O   0  0  0  0  0  0  0  0  0  0  0  0
    6.7020   16.1080    6.5520 C   0  0  0  0  0  0  0  0  0  0  0  0
    6.9410   15.3550    5.3500 N   0  0  0  0  0  0  0  0  0  0  0  0
    6.9880   15.8670    4.0440 C   0  0  0  0  0  0  0  0  0  0  0  0
    6.6710   16.9880    3.6820 O   0  0  0  0  0  0  0  0  0  0  0  0
    7.4610   14.8330    3.2360 N   0  0  0  0  0  0  0  0  0  0  0  0
    7.5950   14.9120    1.8290 C   0  0  0  0  0  0  0  0  0  0  0  0
    8.8960   14.7440    1.4750 F   0  0  0  0  0  0  0  0  0  0  0  0
    6.9100   13.8900    1.2550 F   0  0  0  0  0  0  0  0  0  0  0  0
    7.7110   13.7210    4.0340 C   0  0  0  0  0  0  0  0  0  0  0  0
    8.1710   12.4680    3.7920 C   0  0  0  0  0  0  0  0  0  0  0  0
    8.3270   11.5870    4.8060 N   0  0  0  0  0  0  0  0  0  0  0  0
    8.0190   12.0010    6.0690 C   0  0  0  0  0  0  0  0  0  0  0  0
    8.2060   11.0320    7.1710 C   0  0  0  0  0  0  0  0  0  0  0  0
    7.9910   11.3930    8.5160 C   0  0  0  0  0  0  0  0  0  0  0  0
    8.1680   10.4780    9.5580 C   0  0  0  0  0  0  0  0  0  0  0  0
    8.5670    9.1740    9.2810 C   0  0  0  0  0  0  0  0  0  0  0  0
    8.7890    8.7860    7.9630 C   0  0  0  0  0  0  0  0  0  0  0  0
    8.6110    9.7050    6.9230 C   0  0  0  0  0  0  0  0  0  0  0  0
    7.5480   13.2280    6.3890 N   0  0  0  0  0  0  0  0  0  0  0  0
    7.4160   14.0390    5.3410 C   0  0  0  0  0  0  0  0  0  0  0  0
    4.9098   15.3379   11.3903 H   0  0  0  0  0  0  0  0  0  0  0  0
    3.9445   14.2931   10.2933 H   0  0  0  0  0  0  0  0  0  0  0  0
    5.7373   14.1809   10.2933 H   0  0  0  0  0  0  0  0  0  0  0  0
    4.1518   16.6700    9.5026 H   0  0  0  0  0  0  0  0  0  0  0  0
    5.9411   16.4007    9.3672 H   0  0  0  0  0  0  0  0  0  0  0  0
    5.1498   13.4214    7.3166 H   0  0  0  0  0  0  0  0  0  0  0  0
    4.2989   13.5823    8.9250 H   0  0  0  0  0  0  0  0  0  0  0  0
    1.8490   14.0913    9.0102 H   0  0  0  0  0  0  0  0  0  0  0  0
   -0.3714   13.0761    5.4448 H   0  0  0  0  0  0  0  0  0  0  0  0
    1.7696   12.8819    4.1655 H   0  0  0  0  0  0  0  0  0  0  0  0
    7.0540   17.1402    6.4080 H   0  0  0  0  0  0  0  0  0  0  0  0
    7.2455   15.6330    7.3820 H   0  0  0  0  0  0  0  0  0  0  0  0
    7.2182   15.8924    1.5023 H   0  0  0  0  0  0  0  0  0  0  0  0
    8.4189   12.1664    2.7636 H   0  0  0  0  0  0  0  0  0  0  0  0
    7.6761   12.4202    8.7519 H   0  0  0  0  0  0  0  0  0  0  0  0
    7.9916   10.7892   10.5982 H   0  0  0  0  0  0  0  0  0  0  0  0
    8.7063    8.4531   10.1001 H   0  0  0  0  0  0  0  0  0  0  0  0
    9.1045    7.7564    7.7388 H   0  0  0  0  0  0  0  0  0  0  0  0
    8.7916    9.3839    5.8865 H   0  0  0  0  0  0  0  0  0  0  0  0
  1  2  1  0
  2  3  1  0
  3  4  1  0
  4  5  1  0
  5  6  2  0
  6  7  1  0
  7  8  1  0
  7  9  2  0
  9 10  1  0
 10 11  2  0
 11 12  1  0
  3 13  1  0
 13 14  2  0
 13 15  1  0
 15 16  1  0
 16 17  1  0
 17 18  2  0
 17 19  1  0
 19 20  1  0
 20 21  1  0
 20 22  1  0
 19 23  1  0
 23 24  2  0
 24 25  1  0
 25 26  2  0
 26 27  1  0
 27 28  2  0
 28 29  1  0
 29 30  2  0
 30 31  1  0
 31 32  2  0
 26 33  1  0
 33 34  2  0
 11  5  1  0
 34 16  1  0
 34 23  1  0
 32 27  1  0
  1 35  1  0
  1 36  1  0
  1 37  1  0
  2 38  1  0
  2 39  1  0
  4 40  1  0
  4 41  1  0
  6 42  1  0
  9 43  1  0
 10 44  1  0
 15 45  1  0
 15 46  1  0
 20 47  1  0
 24 48  1  0
 28 49  1  0
 29 50  1  0
 30 51  1  0
 31 52  1  0
 32 53  1  0
M  END
>  <meeko>  (10) 
{"is_sidechain": [false], "free_energy": -4.848, "intermolecular_energy": -8.261, "internal_energy": -2.004}

$$$$
