A7_meeko_out
     RDKit          3D

 53 56  0  0  0  0  0  0  0  0999 V2000
    0.7470   18.7910    3.8180 C   0  0  0  0  0  0  0  0  0  0  0  0
    1.5130   18.0300    4.8880 C   0  0  0  0  0  0  0  0  0  0  0  0
    0.6160   17.3560    5.8270 N   0  0  0  0  0  0  0  0  0  0  0  0
   -0.1660   16.2290    5.3130 C   0  0  0  0  0  0  0  0  0  0  0  0
    0.3130   14.8910    5.8100 C   0  0  0  0  0  0  0  0  0  0  0  0
    1.2410   14.1170    5.0950 C   0  0  0  0  0  0  0  0  0  0  0  0
    1.6300   12.8700    5.5780 C   0  0  0  0  0  0  0  0  0  0  0  0
    2.5190   12.1450    4.8870 F   0  0  0  0  0  0  0  0  0  0  0  0
    1.1080   12.3610    6.7630 C   0  0  0  0  0  0  0  0  0  0  0  0
    0.1740   13.1110    7.4740 C   0  0  0  0  0  0  0  0  0  0  0  0
   -0.2180   14.3580    6.9920 C   0  0  0  0  0  0  0  0  0  0  0  0
   -1.1210   15.0620    7.6880 F   0  0  0  0  0  0  0  0  0  0  0  0
    0.3930   17.9570    7.0690 C   0  0  0  0  0  0  0  0  0  0  0  0
   -0.7410   18.3040    7.4150 O   0  0  0  0  0  0  0  0  0  0  0  0
    1.6170   18.2200    7.9640 C   0  0  0  0  0  0  0  0  0  0  0  0
    1.8640   17.0950    8.8250 N   0  0  0  0  0  0  0  0  0  0  0  0
    1.1430   16.7600    9.9820 C   0  0  0  0  0  0  0  0  0  0  0  0
    0.3050   17.4410   10.5490 O   0  0  0  0  0  0  0  0  0  0  0  0
    1.5820   15.4920   10.3630 N   0  0  0  0  0  0  0  0  0  0  0  0
    1.1530   14.8100   11.5260 C   0  0  0  0  0  0  0  0  0  0  0  0
    1.4540   15.5400   12.6310 F   0  0  0  0  0  0  0  0  0  0  0  0
   -0.1990   14.6930   11.5050 F   0  0  0  0  0  0  0  0  0  0  0  0
    2.5390   15.0580    9.4500 C   0  0  0  0  0  0  0  0  0  0  0  0
    3.2840   13.9310    9.3260 C   0  0  0  0  0  0  0  0  0  0  0  0
    4.1430   13.7880    8.2910 N   0  0  0  0  0  0  0  0  0  0  0  0
    4.2260   14.8010    7.3800 C   0  0  0  0  0  0  0  0  0  0  0  0
    5.1600   14.6260    6.2470 C   0  0  0  0  0  0  0  0  0  0  0  0
    5.7960   15.7270    5.6390 C   0  0  0  0  0  0  0  0  0  0  0  0
    6.6790   15.5630    4.5670 C   0  0  0  0  0  0  0  0  0  0  0  0
    6.9490   14.2900    4.0740 C   0  0  0  0  0  0  0  0  0  0  0  0
    6.3350   13.1830    4.6510 C   0  0  0  0  0  0  0  0  0  0  0  0
    5.4520   13.3510    5.7230 C   0  0  0  0  0  0  0  0  0  0  0  0
    3.5240   15.9550    7.4400 N   0  0  0  0  0  0  0  0  0  0  0  0
    2.7030   16.0280    8.4860 C   0  0  0  0  0  0  0  0  0  0  0  0
    0.0444   19.4891    4.2966 H   0  0  0  0  0  0  0  0  0  0  0  0
    1.4542   19.3545    3.1916 H   0  0  0  0  0  0  0  0  0  0  0  0
    0.1882   18.0802    3.1916 H   0  0  0  0  0  0  0  0  0  0  0  0
    2.1496   17.2764    4.4013 H   0  0  0  0  0  0  0  0  0  0  0  0
    2.1172   18.7541    5.4543 H   0  0  0  0  0  0  0  0  0  0  0  0
   -1.2131   16.3613    5.6230 H   0  0  0  0  0  0  0  0  0  0  0  0
   -0.0525   16.2279    4.2189 H   0  0  0  0  0  0  0  0  0  0  0  0
    1.6614   14.4961    4.1519 H   0  0  0  0  0  0  0  0  0  0  0  0
    1.4294   11.3768    7.1345 H   0  0  0  0  0  0  0  0  0  0  0  0
   -0.2515   12.7210    8.4104 H   0  0  0  0  0  0  0  0  0  0  0  0
    2.4992   18.3904    7.3294 H   0  0  0  0  0  0  0  0  0  0  0  0
    1.4190   19.1060    8.5852 H   0  0  0  0  0  0  0  0  0  0  0  0
    1.6487   13.8283   11.5511 H   0  0  0  0  0  0  0  0  0  0  0  0
    3.1889   13.1283   10.0720 H   0  0  0  0  0  0  0  0  0  0  0  0
    5.5929   16.7399    6.0168 H   0  0  0  0  0  0  0  0  0  0  0  0
    7.1608   16.4415    4.1129 H   0  0  0  0  0  0  0  0  0  0  0  0
    7.6447   14.1596    3.2320 H   0  0  0  0  0  0  0  0  0  0  0  0
    6.5440   12.1748    4.2640 H   0  0  0  0  0  0  0  0  0  0  0  0
    4.9738   12.4659    6.1678 H   0  0  0  0  0  0  0  0  0  0  0  0
  1  2  1  0
  2  3  1  0
  3  4  1  0
  4  5  1  0
  5  6  2  0
  6  7  1  0
  7  8  1  0
  7  9  2  0
  9 10  1  0
 10 11  2  0
 11 12  1  0
  3 13  1  0
 13 14  2  0
 13 15  1  0
 15 16  1  0
 16 17  1  0
 17 18  2  0
 17 19  1  0
 19 20  1  0
 20 21  1  0
 20 22  1  0
 19 23  1  0
 23 24  2  0
 24 25  1  0
 25 26  2  0
 26 27  1  0
 27 28  2  0
 28 29  1  0
 29 30  2  0
 30 31  1  0
 31 32  2  0
 26 33  1  0
 33 34  2  0
 11  5  1  0
 34 16  1  0
 34 23  1  0
 32 27  1  0
  1 35  1  0
  1 36  1  0
  1 37  1  0
  2 38  1  0
  2 39  1  0
  4 40  1  0
  4 41  1  0
  6 42  1  0
  9 43  1  0
 10 44  1  0
 15 45  1  0
 15 46  1  0
 20 47  1  0
 24 48  1  0
 28 49  1  0
 29 50  1  0
 30 51  1  0
 31 52  1  0
 32 53  1  0
M  END
>  <meeko>  (1) 
{"is_sidechain": [false], "free_energy": -5.751, "intermolecular_energy": -8.44, "internal_energy": -3.138}

$$$$
A7_meeko_out
     RDKit          3D

 53 56  0  0  0  0  0  0  0  0999 V2000
   -1.5860   18.1270    7.3830 C   0  0  0  0  0  0  0  0  0  0  0  0
   -0.0750   17.9580    7.4330 C   0  0  0  0  0  0  0  0  0  0  0  0
    0.4510   17.3770    6.1980 N   0  0  0  0  0  0  0  0  0  0  0  0
   -0.3100   16.2770    5.6000 C   0  0  0  0  0  0  0  0  0  0  0  0
    0.2040   14.9150    5.9850 C   0  0  0  0  0  0  0  0  0  0  0  0
    1.1520   14.2280    5.2100 C   0  0  0  0  0  0  0  0  0  0  0  0
    1.5740   12.9560    5.5880 C   0  0  0  0  0  0  0  0  0  0  0  0
    2.4820   12.3150    4.8400 F   0  0  0  0  0  0  0  0  0  0  0  0
    1.0650   12.3360    6.7250 C   0  0  0  0  0  0  0  0  0  0  0  0
    0.1120   12.9990    7.4940 C   0  0  0  0  0  0  0  0  0  0  0  0
   -0.3130   14.2720    7.1170 C   0  0  0  0  0  0  0  0  0  0  0  0
   -1.2350   14.8910    7.8680 F   0  0  0  0  0  0  0  0  0  0  0  0
    1.7380   17.7450    5.7950 C   0  0  0  0  0  0  0  0  0  0  0  0
    1.9780   18.0370    4.6190 O   0  0  0  0  0  0  0  0  0  0  0  0
    2.8510   17.7180    6.8560 C   0  0  0  0  0  0  0  0  0  0  0  0
    3.3400   16.3780    7.0430 N   0  0  0  0  0  0  0  0  0  0  0  0
    4.3670   15.7600    6.3130 C   0  0  0  0  0  0  0  0  0  0  0  0
    4.9000   16.1750    5.2970 O   0  0  0  0  0  0  0  0  0  0  0  0
    4.6510   14.5650    6.9740 N   0  0  0  0  0  0  0  0  0  0  0  0
    5.5860   13.6020    6.5250 C   0  0  0  0  0  0  0  0  0  0  0  0
    5.2390   13.1560    5.2900 F   0  0  0  0  0  0  0  0  0  0  0  0
    6.8030   14.1880    6.3890 F   0  0  0  0  0  0  0  0  0  0  0  0
    3.8270   14.4650    8.0910 C   0  0  0  0  0  0  0  0  0  0  0  0
    3.6730   13.5420    9.0730 C   0  0  0  0  0  0  0  0  0  0  0  0
    2.7730   13.7380   10.0630 N   0  0  0  0  0  0  0  0  0  0  0  0
    2.0400   14.8890   10.0460 C   0  0  0  0  0  0  0  0  0  0  0  0
    1.0680   15.0970   11.1420 C   0  0  0  0  0  0  0  0  0  0  0  0
    1.1680   14.3920   12.3590 C   0  0  0  0  0  0  0  0  0  0  0  0
    0.2490   14.5870   13.3960 C   0  0  0  0  0  0  0  0  0  0  0  0
   -0.7950   15.4930   13.2410 C   0  0  0  0  0  0  0  0  0  0  0  0
   -0.9220   16.2030   12.0510 C   0  0  0  0  0  0  0  0  0  0  0  0
   -0.0010   16.0050   11.0160 C   0  0  0  0  0  0  0  0  0  0  0  0
    2.1300   15.8510    9.1000 N   0  0  0  0  0  0  0  0  0  0  0  0
    3.0310   15.5880    8.1560 C   0  0  0  0  0  0  0  0  0  0  0  0
   -1.9841   18.1715    8.4075 H   0  0  0  0  0  0  0  0  0  0  0  0
   -1.8334   19.0584    6.8527 H   0  0  0  0  0  0  0  0  0  0  0  0
   -2.0331   17.2733    6.8527 H   0  0  0  0  0  0  0  0  0  0  0  0
    0.3880   18.9438    7.5874 H   0  0  0  0  0  0  0  0  0  0  0  0
    0.1638   17.2732    8.2601 H   0  0  0  0  0  0  0  0  0  0  0  0
   -1.3571   16.3596    5.9266 H   0  0  0  0  0  0  0  0  0  0  0  0
   -0.2064   16.3664    4.5085 H   0  0  0  0  0  0  0  0  0  0  0  0
    1.5621   14.6954    4.3026 H   0  0  0  0  0  0  0  0  0  0  0  0
    1.4118   11.3327    7.0133 H   0  0  0  0  0  0  0  0  0  0  0  0
   -0.3030   12.5210    8.3936 H   0  0  0  0  0  0  0  0  0  0  0  0
    3.6795   18.3626    6.5273 H   0  0  0  0  0  0  0  0  0  0  0  0
    2.4408   18.0821    7.8095 H   0  0  0  0  0  0  0  0  0  0  0  0
    5.6067   12.7777    7.2531 H   0  0  0  0  0  0  0  0  0  0  0  0
    4.2845   12.6277    9.0639 H   0  0  0  0  0  0  0  0  0  0  0  0
    1.9879   13.6717   12.4965 H   0  0  0  0  0  0  0  0  0  0  0  0
    0.3523   14.0232   14.3348 H   0  0  0  0  0  0  0  0  0  0  0  0
   -1.5174   15.6476   14.0560 H   0  0  0  0  0  0  0  0  0  0  0  0
   -1.7464   16.9200   11.9238 H   0  0  0  0  0  0  0  0  0  0  0  0
   -0.1150   16.5728   10.0808 H   0  0  0  0  0  0  0  0  0  0  0  0
  1  2  1  0
  2  3  1  0
  3  4  1  0
  4  5  1  0
  5  6  2  0
  6  7  1  0
  7  8  1  0
  7  9  2  0
  9 10  1  0
 10 11  2  0
 11 12  1  0
  3 13  1  0
 13 14  2  0
 13 15  1  0
 15 16  1  0
 16 17  1  0
 17 18  2  0
 17 19  1  0
 19 20  1  0
 20 21  1  0
 20 22  1  0
 19 23  1  0
 23 24  2  0
 24 25  1  0
 25 26  2  0
 26 27  1  0
 27 28  2  0
 28 29  1  0
 29 30  2  0
 30 31  1  0
 31 32  2  0
 26 33  1  0
 33 34  2  0
 11  5  1  0
 34 16  1  0
 34 23  1  0
 32 27  1  0
  1 35  1  0
  1 36  1  0
  1 37  1  0
  2 38  1  0
  2 39  1  0
  4 40  1  0
  4 41  1  0
  6 42  1  0
  9 43  1  0
 10 44  1  0
 15 45  1  0
 15 46  1  0
 20 47  1  0
 24 48  1  0
 28 49  1  0
 29 50  1  0
 30 51  1  0
 31 52  1  0
 32 53  1  0
M  END
>  <meeko>  (2) 
{"is_sidechain": [false], "free_energy": -5.535, "intermolecular_energy": -8.027, "internal_energy": -3.235}

$$$$
A7_meeko_out
     RDKit          3D

 53 56  0  0  0  0  0  0  0  0999 V2000
    5.5670   17.3920    5.0550 C   0  0  0  0  0  0  0  0  0  0  0  0
    5.9290   15.9230    4.9020 C   0  0  0  0  0  0  0  0  0  0  0  0
    5.5800   15.1470    6.0920 N   0  0  0  0  0  0  0  0  0  0  0  0
    4.3400   15.5080    6.7850 C   0  0  0  0  0  0  0  0  0  0  0  0
    3.1060   14.9230    6.1500 C   0  0  0  0  0  0  0  0  0  0  0  0
    3.0150   13.5640    5.8080 C   0  0  0  0  0  0  0  0  0  0  0  0
    1.8660   13.0750    5.1930 C   0  0  0  0  0  0  0  0  0  0  0  0
    1.7920   11.7750    4.8760 F   0  0  0  0  0  0  0  0  0  0  0  0
    0.7950   13.9120    4.8960 C   0  0  0  0  0  0  0  0  0  0  0  0
    0.8780   15.2650    5.2150 C   0  0  0  0  0  0  0  0  0  0  0  0
    2.0280   15.7570    5.8300 C   0  0  0  0  0  0  0  0  0  0  0  0
    2.0900   17.0640    6.1240 F   0  0  0  0  0  0  0  0  0  0  0  0
    6.5410   14.2790    6.6170 C   0  0  0  0  0  0  0  0  0  0  0  0
    7.3070   14.6430    7.5140 O   0  0  0  0  0  0  0  0  0  0  0  0
    6.6460   12.8740    5.9980 C   0  0  0  0  0  0  0  0  0  0  0  0
    8.0150   12.5560    5.6930 N   0  0  0  0  0  0  0  0  0  0  0  0
    8.8950   11.8190    6.5000 C   0  0  0  0  0  0  0  0  0  0  0  0
    8.7170   11.4690    7.6550 O   0  0  0  0  0  0  0  0  0  0  0  0
   10.0260   11.5710    5.7200 N   0  0  0  0  0  0  0  0  0  0  0  0
   11.1890   10.9100    6.1800 C   0  0  0  0  0  0  0  0  0  0  0  0
   11.5360    9.9210    5.3150 F   0  0  0  0  0  0  0  0  0  0  0  0
   12.2270   11.7840    6.1940 F   0  0  0  0  0  0  0  0  0  0  0  0
    9.8310   12.1330    4.4620 C   0  0  0  0  0  0  0  0  0  0  0  0
   10.5770   12.1980    3.3300 C   0  0  0  0  0  0  0  0  0  0  0  0
   10.0980   12.8170    2.2280 N   0  0  0  0  0  0  0  0  0  0  0  0
    8.8470   13.3600    2.2890 C   0  0  0  0  0  0  0  0  0  0  0  0
    8.3300   14.0240    1.0720 C   0  0  0  0  0  0  0  0  0  0  0  0
    9.1730   14.7690    0.2240 C   0  0  0  0  0  0  0  0  0  0  0  0
    8.6860   15.3980   -0.9260 C   0  0  0  0  0  0  0  0  0  0  0  0
    7.3390   15.2970   -1.2580 C   0  0  0  0  0  0  0  0  0  0  0  0
    6.4790   14.5700   -0.4400 C   0  0  0  0  0  0  0  0  0  0  0  0
    6.9710   13.9430    0.7100 C   0  0  0  0  0  0  0  0  0  0  0  0
    8.0480   13.3440    3.3800 N   0  0  0  0  0  0  0  0  0  0  0  0
    8.5870   12.7220    4.4270 C   0  0  0  0  0  0  0  0  0  0  0  0
    5.5047   17.6449    6.1237 H   0  0  0  0  0  0  0  0  0  0  0  0
    6.3393   18.0118    4.5760 H   0  0  0  0  0  0  0  0  0  0  0  0
    4.5952   17.5820    4.5760 H   0  0  0  0  0  0  0  0  0  0  0  0
    5.3869   15.5115    4.0378 H   0  0  0  0  0  0  0  0  0  0  0  0
    7.0173   15.8539    4.7578 H   0  0  0  0  0  0  0  0  0  0  0  0
    4.4027   15.1469    7.8221 H   0  0  0  0  0  0  0  0  0  0  0  0
    4.2449   16.6025    6.7300 H   0  0  0  0  0  0  0  0  0  0  0  0
    3.8526   12.8852    6.0263 H   0  0  0  0  0  0  0  0  0  0  0  0
   -0.1081   13.5091    4.4141 H   0  0  0  0  0  0  0  0  0  0  0  0
    0.0417   15.9409    4.9832 H   0  0  0  0  0  0  0  0  0  0  0  0
    6.2534   12.1344    6.7114 H   0  0  0  0  0  0  0  0  0  0  0  0
    6.0610   12.8523    5.0667 H   0  0  0  0  0  0  0  0  0  0  0  0
   10.9804   10.5062    7.1817 H   0  0  0  0  0  0  0  0  0  0  0  0
   11.5786   11.7437    3.3092 H   0  0  0  0  0  0  0  0  0  0  0  0
   10.2408   14.8581    0.4727 H   0  0  0  0  0  0  0  0  0  0  0  0
    9.3687   15.9732   -1.5687 H   0  0  0  0  0  0  0  0  0  0  0  0
    6.9550   15.7897   -2.1634 H   0  0  0  0  0  0  0  0  0  0  0  0
    5.4127   14.4884   -0.6976 H   0  0  0  0  0  0  0  0  0  0  0  0
    6.2793   13.3726    1.3474 H   0  0  0  0  0  0  0  0  0  0  0  0
  1  2  1  0
  2  3  1  0
  3  4  1  0
  4  5  1  0
  5  6  2  0
  6  7  1  0
  7  8  1  0
  7  9  2  0
  9 10  1  0
 10 11  2  0
 11 12  1  0
  3 13  1  0
 13 14  2  0
 13 15  1  0
 15 16  1  0
 16 17  1  0
 17 18  2  0
 17 19  1  0
 19 20  1  0
 20 21  1  0
 20 22  1  0
 19 23  1  0
 23 24  2  0
 24 25  1  0
 25 26  2  0
 26 27  1  0
 27 28  2  0
 28 29  1  0
 29 30  2  0
 30 31  1  0
 31 32  2  0
 26 33  1  0
 33 34  2  0
 11  5  1  0
 34 16  1  0
 34 23  1  0
 32 27  1  0
  1 35  1  0
  1 36  1  0
  1 37  1  0
  2 38  1  0
  2 39  1  0
  4 40  1  0
  4 41  1  0
  6 42  1  0
  9 43  1  0
 10 44  1  0
 15 45  1  0
 15 46  1  0
 20 47  1  0
 24 48  1  0
 28 49  1  0
 29 50  1  0
 30 51  1  0
 31 52  1  0
 32 53  1  0
M  END
>  <meeko>  (3) 
{"is_sidechain": [false], "free_energy": -5.432, "intermolecular_energy": -9.466, "internal_energy": -1.644}

$$$$
A7_meeko_out
     RDKit          3D

 53 56  0  0  0  0  0  0  0  0999 V2000
   10.9250   12.2100    1.9490 C   0  0  0  0  0  0  0  0  0  0  0  0
   10.7050   13.6360    2.4280 C   0  0  0  0  0  0  0  0  0  0  0  0
    9.3890   14.1450    2.0420 N   0  0  0  0  0  0  0  0  0  0  0  0
    9.2800   14.7900    0.7310 C   0  0  0  0  0  0  0  0  0  0  0  0
    7.8610   14.9230    0.2440 C   0  0  0  0  0  0  0  0  0  0  0  0
    7.1180   13.8190   -0.2030 C   0  0  0  0  0  0  0  0  0  0  0  0
    5.8210   13.9950   -0.6750 C   0  0  0  0  0  0  0  0  0  0  0  0
    5.1240   12.9310   -1.0950 F   0  0  0  0  0  0  0  0  0  0  0  0
    5.2370   15.2560   -0.7260 C   0  0  0  0  0  0  0  0  0  0  0  0
    5.9670   16.3630   -0.3000 C   0  0  0  0  0  0  0  0  0  0  0  0
    7.2670   16.1900    0.1720 C   0  0  0  0  0  0  0  0  0  0  0  0
    7.9560   17.2680    0.5710 F   0  0  0  0  0  0  0  0  0  0  0  0
    8.3890   14.1890    3.0170 C   0  0  0  0  0  0  0  0  0  0  0  0
    8.0210   15.2620    3.5050 O   0  0  0  0  0  0  0  0  0  0  0  0
    7.8040   12.8490    3.4980 C   0  0  0  0  0  0  0  0  0  0  0  0
    7.7650   12.8010    4.9350 N   0  0  0  0  0  0  0  0  0  0  0  0
    8.8660   12.6470    5.7910 C   0  0  0  0  0  0  0  0  0  0  0  0
   10.0090   12.3590    5.4750 O   0  0  0  0  0  0  0  0  0  0  0  0
    8.3920   12.8780    7.0830 N   0  0  0  0  0  0  0  0  0  0  0  0
    9.1720   12.7560    8.2570 C   0  0  0  0  0  0  0  0  0  0  0  0
    9.1340   13.9150    8.9650 F   0  0  0  0  0  0  0  0  0  0  0  0
    8.6300   11.8030    9.0580 F   0  0  0  0  0  0  0  0  0  0  0  0
    7.0360   13.1820    7.0130 C   0  0  0  0  0  0  0  0  0  0  0  0
    6.0880   13.4880    7.9340 C   0  0  0  0  0  0  0  0  0  0  0  0
    4.8200   13.7590    7.5480 N   0  0  0  0  0  0  0  0  0  0  0  0
    4.5330   13.7240    6.2140 C   0  0  0  0  0  0  0  0  0  0  0  0
    3.1460   14.0340    5.8050 C   0  0  0  0  0  0  0  0  0  0  0  0
    2.6510   15.3530    5.8160 C   0  0  0  0  0  0  0  0  0  0  0  0
    1.3400   15.6480    5.4310 C   0  0  0  0  0  0  0  0  0  0  0  0
    0.4870   14.6270    5.0220 C   0  0  0  0  0  0  0  0  0  0  0  0
    0.9450   13.3130    5.0010 C   0  0  0  0  0  0  0  0  0  0  0  0
    2.2580   13.0230    5.3880 C   0  0  0  0  0  0  0  0  0  0  0  0
    5.4200   13.4190    5.2390 N   0  0  0  0  0  0  0  0  0  0  0  0
    6.6440   13.1600    5.6930 C   0  0  0  0  0  0  0  0  0  0  0  0
   11.0279   11.5431    2.8177 H   0  0  0  0  0  0  0  0  0  0  0  0
   10.0655   11.8906    1.3413 H   0  0  0  0  0  0  0  0  0  0  0  0
   11.8408   12.1645    1.3413 H   0  0  0  0  0  0  0  0  0  0  0  0
   10.7875   13.6593    3.5247 H   0  0  0  0  0  0  0  0  0  0  0  0
   11.4681   14.2744    1.9588 H   0  0  0  0  0  0  0  0  0  0  0  0
    9.7204   15.7957    0.7999 H   0  0  0  0  0  0  0  0  0  0  0  0
    9.8113   14.1509    0.0104 H   0  0  0  0  0  0  0  0  0  0  0  0
    7.5620   12.8129   -0.1801 H   0  0  0  0  0  0  0  0  0  0  0  0
    4.2093   15.3779   -1.0989 H   0  0  0  0  0  0  0  0  0  0  0  0
    5.5204   17.3676   -0.3358 H   0  0  0  0  0  0  0  0  0  0  0  0
    6.7827   12.7383    3.1046 H   0  0  0  0  0  0  0  0  0  0  0  0
    8.4428   12.0314    3.1328 H   0  0  0  0  0  0  0  0  0  0  0  0
   10.2016   12.5062    7.9611 H   0  0  0  0  0  0  0  0  0  0  0  0
    6.3521   13.5159    9.0015 H   0  0  0  0  0  0  0  0  0  0  0  0
    3.3129   16.1714    6.1356 H   0  0  0  0  0  0  0  0  0  0  0  0
    0.9821   16.6880    5.4513 H   0  0  0  0  0  0  0  0  0  0  0  0
   -0.5443   14.8576    4.7168 H   0  0  0  0  0  0  0  0  0  0  0  0
    0.2746   12.5021    4.6801 H   0  0  0  0  0  0  0  0  0  0  0  0
    2.6055   11.9796    5.3661 H   0  0  0  0  0  0  0  0  0  0  0  0
  1  2  1  0
  2  3  1  0
  3  4  1  0
  4  5  1  0
  5  6  2  0
  6  7  1  0
  7  8  1  0
  7  9  2  0
  9 10  1  0
 10 11  2  0
 11 12  1  0
  3 13  1  0
 13 14  2  0
 13 15  1  0
 15 16  1  0
 16 17  1  0
 17 18  2  0
 17 19  1  0
 19 20  1  0
 20 21  1  0
 20 22  1  0
 19 23  1  0
 23 24  2  0
 24 25  1  0
 25 26  2  0
 26 27  1  0
 27 28  2  0
 28 29  1  0
 29 30  2  0
 30 31  1  0
 31 32  2  0
 26 33  1  0
 33 34  2  0
 11  5  1  0
 34 16  1  0
 34 23  1  0
 32 27  1  0
  1 35  1  0
  1 36  1  0
  1 37  1  0
  2 38  1  0
  2 39  1  0
  4 40  1  0
  4 41  1  0
  6 42  1  0
  9 43  1  0
 10 44  1  0
 15 45  1  0
 15 46  1  0
 20 47  1  0
 24 48  1  0
 28 49  1  0
 29 50  1  0
 30 51  1  0
 31 52  1  0
 32 53  1  0
M  END
>  <meeko>  (4) 
{"is_sidechain": [false], "free_energy": -5.347, "intermolecular_energy": -9.509, "internal_energy": -1.477}

$$$$
A7_meeko_out
     RDKit          3D

 53 56  0  0  0  0  0  0  0  0999 V2000
    5.2470   13.6610    9.4790 C   0  0  0  0  0  0  0  0  0  0  0  0
    5.3560   14.7090    8.3820 C   0  0  0  0  0  0  0  0  0  0  0  0
    4.6750   14.2890    7.1570 N   0  0  0  0  0  0  0  0  0  0  0  0
    3.3710   13.6370    7.3070 C   0  0  0  0  0  0  0  0  0  0  0  0
    2.2880   14.2630    6.4700 C   0  0  0  0  0  0  0  0  0  0  0  0
    1.9210   15.6110    6.6090 C   0  0  0  0  0  0  0  0  0  0  0  0
    0.8900   16.1380    5.8350 C   0  0  0  0  0  0  0  0  0  0  0  0
    0.5530   17.4260    5.9780 F   0  0  0  0  0  0  0  0  0  0  0  0
    0.1990   15.3480    4.9210 C   0  0  0  0  0  0  0  0  0  0  0  0
    0.5420   14.0060    4.7840 C   0  0  0  0  0  0  0  0  0  0  0  0
    1.5720   13.4760    5.5580 C   0  0  0  0  0  0  0  0  0  0  0  0
    1.8840   12.1800    5.4140 F   0  0  0  0  0  0  0  0  0  0  0  0
    5.3940   14.3280    5.9590 C   0  0  0  0  0  0  0  0  0  0  0  0
    5.7360   15.4030    5.4560 O   0  0  0  0  0  0  0  0  0  0  0  0
    5.6950   12.9880    5.2660 C   0  0  0  0  0  0  0  0  0  0  0  0
    7.1110   12.7410    5.2370 N   0  0  0  0  0  0  0  0  0  0  0  0
    7.8580   12.0780    6.2220 C   0  0  0  0  0  0  0  0  0  0  0  0
    7.4820   11.7520    7.3360 O   0  0  0  0  0  0  0  0  0  0  0  0
    9.1270   11.8730    5.6790 N   0  0  0  0  0  0  0  0  0  0  0  0
   10.2140   11.2930    6.3750 C   0  0  0  0  0  0  0  0  0  0  0  0
   10.7110   10.2430    5.6710 F   0  0  0  0  0  0  0  0  0  0  0  0
   11.2210   12.1980    6.4710 F   0  0  0  0  0  0  0  0  0  0  0  0
    9.1470   12.3870    4.3860 C   0  0  0  0  0  0  0  0  0  0  0  0
   10.0900   12.4620    3.4130 C   0  0  0  0  0  0  0  0  0  0  0  0
    9.7980   13.0210    2.2170 N   0  0  0  0  0  0  0  0  0  0  0  0
    8.5320   13.4930    2.0200 C   0  0  0  0  0  0  0  0  0  0  0  0
    8.2230   14.0910    0.7030 C   0  0  0  0  0  0  0  0  0  0  0  0
    6.9420   13.9800    0.1260 C   0  0  0  0  0  0  0  0  0  0  0  0
    6.6480   14.5440   -1.1200 C   0  0  0  0  0  0  0  0  0  0  0  0
    7.6310   15.2350   -1.8210 C   0  0  0  0  0  0  0  0  0  0  0  0
    8.9060   15.3610   -1.2790 C   0  0  0  0  0  0  0  0  0  0  0  0
    9.1960   14.7950   -0.0320 C   0  0  0  0  0  0  0  0  0  0  0  0
    7.5430   13.4620    2.9420 N   0  0  0  0  0  0  0  0  0  0  0  0
    7.9030   12.9020    4.0950 C   0  0  0  0  0  0  0  0  0  0  0  0
    5.2981   14.1523   10.4618 H   0  0  0  0  0  0  0  0  0  0  0  0
    4.2887   13.1293    9.3842 H   0  0  0  0  0  0  0  0  0  0  0  0
    6.0754   12.9435    9.3842 H   0  0  0  0  0  0  0  0  0  0  0  0
    4.9018   15.6454    8.7383 H   0  0  0  0  0  0  0  0  0  0  0  0
    6.4218   14.8490    8.1488 H   0  0  0  0  0  0  0  0  0  0  0  0
    3.4730   12.5821    7.0124 H   0  0  0  0  0  0  0  0  0  0  0  0
    3.0722   13.7486    8.3597 H   0  0  0  0  0  0  0  0  0  0  0  0
    2.4487   16.2521    7.3305 H   0  0  0  0  0  0  0  0  0  0  0  0
   -0.6098   15.7797    4.3132 H   0  0  0  0  0  0  0  0  0  0  0  0
    0.0029   13.3675    4.0687 H   0  0  0  0  0  0  0  0  0  0  0  0
    5.1975   12.1762    5.8169 H   0  0  0  0  0  0  0  0  0  0  0  0
    5.3209   13.0310    4.2324 H   0  0  0  0  0  0  0  0  0  0  0  0
    9.8562   10.9731    7.3648 H   0  0  0  0  0  0  0  0  0  0  0  0
   11.0990   12.0652    3.5986 H   0  0  0  0  0  0  0  0  0  0  0  0
    6.1543   13.4367    0.6685 H   0  0  0  0  0  0  0  0  0  0  0  0
    5.6389   14.4410   -1.5457 H   0  0  0  0  0  0  0  0  0  0  0  0
    7.4010   15.6801   -2.8003 H   0  0  0  0  0  0  0  0  0  0  0  0
    9.6865   15.9056   -1.8305 H   0  0  0  0  0  0  0  0  0  0  0  0
   10.2086   14.9028    0.3838 H   0  0  0  0  0  0  0  0  0  0  0  0
  1  2  1  0
  2  3  1  0
  3  4  1  0
  4  5  1  0
  5  6  2  0
  6  7  1  0
  7  8  1  0
  7  9  2  0
  9 10  1  0
 10 11  2  0
 11 12  1  0
  3 13  1  0
 13 14  2  0
 13 15  1  0
 15 16  1  0
 16 17  1  0
 17 18  2  0
 17 19  1  0
 19 20  1  0
 20 21  1  0
 20 22  1  0
 19 23  1  0
 23 24  2  0
 24 25  1  0
 25 26  2  0
 26 27  1  0
 27 28  2  0
 28 29  1  0
 29 30  2  0
 30 31  1  0
 31 32  2  0
 26 33  1  0
 33 34  2  0
 11  5  1  0
 34 16  1  0
 34 23  1  0
 32 27  1  0
  1 35  1  0
  1 36  1  0
  1 37  1  0
  2 38  1  0
  2 39  1  0
  4 40  1  0
  4 41  1  0
  6 42  1  0
  9 43  1  0
 10 44  1  0
 15 45  1  0
 15 46  1  0
 20 47  1  0
 24 48  1  0
 28 49  1  0
 29 50  1  0
 30 51  1  0
 31 52  1  0
 32 53  1  0
M  END
>  <meeko>  (5) 
{"is_sidechain": [false], "free_energy": -5.297, "intermolecular_energy": -9.347, "internal_energy": -1.565}

$$$$
A7_meeko_out
     RDKit          3D

 53 56  0  0  0  0  0  0  0  0999 V2000
    9.1870   15.9270    5.2750 C   0  0  0  0  0  0  0  0  0  0  0  0
    9.7220   15.3210    3.9870 C   0  0  0  0  0  0  0  0  0  0  0  0
    8.7080   14.5250    3.2960 N   0  0  0  0  0  0  0  0  0  0  0  0
    7.4480   15.1940    2.9620 C   0  0  0  0  0  0  0  0  0  0  0  0
    7.3880   15.6820    1.5380 C   0  0  0  0  0  0  0  0  0  0  0  0
    7.6860   17.0090    1.1910 C   0  0  0  0  0  0  0  0  0  0  0  0
    7.5850   17.4240   -0.1340 C   0  0  0  0  0  0  0  0  0  0  0  0
    7.8770   18.6920   -0.4510 F   0  0  0  0  0  0  0  0  0  0  0  0
    7.1810   16.5460   -1.1350 C   0  0  0  0  0  0  0  0  0  0  0  0
    6.8670   15.2310   -0.8030 C   0  0  0  0  0  0  0  0  0  0  0  0
    6.9660   14.8140    0.5230 C   0  0  0  0  0  0  0  0  0  0  0  0
    6.6530   13.5460    0.8240 F   0  0  0  0  0  0  0  0  0  0  0  0
    8.9060   13.1450    3.2020 C   0  0  0  0  0  0  0  0  0  0  0  0
    9.8720   12.6800    2.5890 O   0  0  0  0  0  0  0  0  0  0  0  0
    7.8500   12.2280    3.8440 C   0  0  0  0  0  0  0  0  0  0  0  0
    7.8050   12.4280    5.2680 N   0  0  0  0  0  0  0  0  0  0  0  0
    8.8970   12.3810    6.1480 C   0  0  0  0  0  0  0  0  0  0  0  0
   10.0280   11.9990    5.8970 O   0  0  0  0  0  0  0  0  0  0  0  0
    8.4290   12.8480    7.3770 N   0  0  0  0  0  0  0  0  0  0  0  0
    9.2000   12.8980    8.5620 C   0  0  0  0  0  0  0  0  0  0  0  0
    9.2100   14.1630    9.0580 F   0  0  0  0  0  0  0  0  0  0  0  0
    8.6160   12.1230    9.5110 F   0  0  0  0  0  0  0  0  0  0  0  0
    7.0860   13.1860    7.2430 C   0  0  0  0  0  0  0  0  0  0  0  0
    6.1470   13.6810    8.0890 C   0  0  0  0  0  0  0  0  0  0  0  0
    4.8930   13.9310    7.6500 N   0  0  0  0  0  0  0  0  0  0  0  0
    4.6080   13.6780    6.3390 C   0  0  0  0  0  0  0  0  0  0  0  0
    3.2360   13.9660    5.8700 C   0  0  0  0  0  0  0  0  0  0  0  0
    2.3730   12.9390    5.4390 C   0  0  0  0  0  0  0  0  0  0  0  0
    1.0750   13.2090    4.9940 C   0  0  0  0  0  0  0  0  0  0  0  0
    0.6060   14.5190    4.9690 C   0  0  0  0  0  0  0  0  0  0  0  0
    1.4330   15.5560    5.3870 C   0  0  0  0  0  0  0  0  0  0  0  0
    2.7310   15.2810    5.8310 C   0  0  0  0  0  0  0  0  0  0  0  0
    5.4850   13.1780    5.4390 N   0  0  0  0  0  0  0  0  0  0  0  0
    6.6970   12.9540    5.9420 C   0  0  0  0  0  0  0  0  0  0  0  0
    9.6394   15.4146    6.1369 H   0  0  0  0  0  0  0  0  0  0  0  0
    9.4406   16.9968    5.3099 H   0  0  0  0  0  0  0  0  0  0  0  0
    8.0940   15.8080    5.3099 H   0  0  0  0  0  0  0  0  0  0  0  0
   10.0508   16.1330    3.3217 H   0  0  0  0  0  0  0  0  0  0  0  0
   10.5594   14.6561    4.2453 H   0  0  0  0  0  0  0  0  0  0  0  0
    6.6233   14.4840    3.1221 H   0  0  0  0  0  0  0  0  0  0  0  0
    7.3680   16.0781    3.6115 H   0  0  0  0  0  0  0  0  0  0  0  0
    7.9999   17.7223    1.9673 H   0  0  0  0  0  0  0  0  0  0  0  0
    7.1104   16.8875   -2.1783 H   0  0  0  0  0  0  0  0  0  0  0  0
    6.5428   14.5256   -1.5823 H   0  0  0  0  0  0  0  0  0  0  0  0
    6.8633   12.4573    3.4153 H   0  0  0  0  0  0  0  0  0  0  0  0
    8.1187   11.1808    3.6410 H   0  0  0  0  0  0  0  0  0  0  0  0
   10.2181   12.5565    8.3237 H   0  0  0  0  0  0  0  0  0  0  0  0
    6.4081   13.8801    9.1389 H   0  0  0  0  0  0  0  0  0  0  0  0
    2.7293   11.8984    5.4529 H   0  0  0  0  0  0  0  0  0  0  0  0
    0.4246   12.3857    4.6637 H   0  0  0  0  0  0  0  0  0  0  0  0
   -0.4149   14.7334    4.6200 H   0  0  0  0  0  0  0  0  0  0  0  0
    1.0665   16.5930    5.3685 H   0  0  0  0  0  0  0  0  0  0  0  0
    3.3733   16.1120    6.1578 H   0  0  0  0  0  0  0  0  0  0  0  0
  1  2  1  0
  2  3  1  0
  3  4  1  0
  4  5  1  0
  5  6  2  0
  6  7  1  0
  7  8  1  0
  7  9  2  0
  9 10  1  0
 10 11  2  0
 11 12  1  0
  3 13  1  0
 13 14  2  0
 13 15  1  0
 15 16  1  0
 16 17  1  0
 17 18  2  0
 17 19  1  0
 19 20  1  0
 20 21  1  0
 20 22  1  0
 19 23  1  0
 23 24  2  0
 24 25  1  0
 25 26  2  0
 26 27  1  0
 27 28  2  0
 28 29  1  0
 29 30  2  0
 30 31  1  0
 31 32  2  0
 26 33  1  0
 33 34  2  0
 11  5  1  0
 34 16  1  0
 34 23  1  0
 32 27  1  0
  1 35  1  0
  1 36  1  0
  1 37  1  0
  2 38  1  0
  2 39  1  0
  4 40  1  0
  4 41  1  0
  6 42  1  0
  9 43  1  0
 10 44  1  0
 15 45  1  0
 15 46  1  0
 20 47  1  0
 24 48  1  0
 28 49  1  0
 29 50  1  0
 30 51  1  0
 31 52  1  0
 32 53  1  0
M  END
>  <meeko>  (6) 
{"is_sidechain": [false], "free_energy": -5.138, "intermolecular_energy": -8.803, "internal_energy": -1.876}

$$$$
A7_meeko_out
     RDKit          3D

 53 56  0  0  0  0  0  0  0  0999 V2000
   -2.1620   17.9980    6.2400 C   0  0  0  0  0  0  0  0  0  0  0  0
   -1.0910   18.0710    7.3180 C   0  0  0  0  0  0  0  0  0  0  0  0
   -0.8240   16.7600    7.9110 N   0  0  0  0  0  0  0  0  0  0  0  0
   -1.3620   15.5890    7.2140 C   0  0  0  0  0  0  0  0  0  0  0  0
   -0.3000   14.6250    6.7540 C   0  0  0  0  0  0  0  0  0  0  0  0
    0.1040   13.5320    7.5350 C   0  0  0  0  0  0  0  0  0  0  0  0
    1.1140   12.6860    7.0830 C   0  0  0  0  0  0  0  0  0  0  0  0
    1.4860   11.6440    7.8380 F   0  0  0  0  0  0  0  0  0  0  0  0
    1.7470   12.9060    5.8640 C   0  0  0  0  0  0  0  0  0  0  0  0
    1.3660   13.9970    5.0860 C   0  0  0  0  0  0  0  0  0  0  0  0
    0.3570   14.8460    5.5360 C   0  0  0  0  0  0  0  0  0  0  0  0
    0.0100   15.8930    4.7750 F   0  0  0  0  0  0  0  0  0  0  0  0
   -0.2810   16.7200    9.1980 C   0  0  0  0  0  0  0  0  0  0  0  0
   -0.9290   16.2730   10.1500 O   0  0  0  0  0  0  0  0  0  0  0  0
    1.1300   17.3010    9.3940 C   0  0  0  0  0  0  0  0  0  0  0  0
    2.0920   16.5650    8.6190 N   0  0  0  0  0  0  0  0  0  0  0  0
    2.7230   17.0050    7.4450 C   0  0  0  0  0  0  0  0  0  0  0  0
    2.4490   17.9960    6.7900 O   0  0  0  0  0  0  0  0  0  0  0  0
    3.7250   16.0740    7.1680 N   0  0  0  0  0  0  0  0  0  0  0  0
    4.5590   16.1090    6.0250 C   0  0  0  0  0  0  0  0  0  0  0  0
    5.8560   16.2610    6.3990 F   0  0  0  0  0  0  0  0  0  0  0  0
    4.4860   14.9170    5.3800 F   0  0  0  0  0  0  0  0  0  0  0  0
    3.7140   15.0980    8.1590 C   0  0  0  0  0  0  0  0  0  0  0  0
    4.4470   13.9810    8.3940 C   0  0  0  0  0  0  0  0  0  0  0  0
    4.2040   13.2170    9.4840 N   0  0  0  0  0  0  0  0  0  0  0  0
    3.2120   13.6110   10.3350 C   0  0  0  0  0  0  0  0  0  0  0  0
    2.9640   12.7730   11.5290 C   0  0  0  0  0  0  0  0  0  0  0  0
    3.3410   11.4160   11.5680 C   0  0  0  0  0  0  0  0  0  0  0  0
    3.1070   10.6220   12.6960 C   0  0  0  0  0  0  0  0  0  0  0  0
    2.4880   11.1690   13.8160 C   0  0  0  0  0  0  0  0  0  0  0  0
    2.1030   12.5050   13.8080 C   0  0  0  0  0  0  0  0  0  0  0  0
    2.3380   13.2950   12.6770 C   0  0  0  0  0  0  0  0  0  0  0  0
    2.4330   14.7030   10.1650 N   0  0  0  0  0  0  0  0  0  0  0  0
    2.7270   15.4030    9.0710 C   0  0  0  0  0  0  0  0  0  0  0  0
   -3.1533   17.9304    6.7120 H   0  0  0  0  0  0  0  0  0  0  0  0
   -2.1146   18.9015    5.6143 H   0  0  0  0  0  0  0  0  0  0  0  0
   -1.9925   17.1093    5.6143 H   0  0  0  0  0  0  0  0  0  0  0  0
   -0.1621   18.4551    6.8712 H   0  0  0  0  0  0  0  0  0  0  0  0
   -1.4532   18.7381    8.1141 H   0  0  0  0  0  0  0  0  0  0  0  0
   -2.0417   15.0587    7.8972 H   0  0  0  0  0  0  0  0  0  0  0  0
   -1.8783   15.9559    6.3147 H   0  0  0  0  0  0  0  0  0  0  0  0
   -0.3775   13.3428    8.5057 H   0  0  0  0  0  0  0  0  0  0  0  0
    2.5396   12.2261    5.5182 H   0  0  0  0  0  0  0  0  0  0  0  0
    1.8592   14.1872    4.1214 H   0  0  0  0  0  0  0  0  0  0  0  0
    1.1357   18.3531    9.0729 H   0  0  0  0  0  0  0  0  0  0  0  0
    1.3997   17.2267   10.4578 H   0  0  0  0  0  0  0  0  0  0  0  0
    4.2308   16.9416    5.3854 H   0  0  0  0  0  0  0  0  0  0  0  0
    5.2449   13.6942    7.6932 H   0  0  0  0  0  0  0  0  0  0  0  0
    3.8313   10.9699   10.6902 H   0  0  0  0  0  0  0  0  0  0  0  0
    3.4123    9.5652   12.6976 H   0  0  0  0  0  0  0  0  0  0  0  0
    2.3040   10.5467   14.7042 H   0  0  0  0  0  0  0  0  0  0  0  0
    1.6134   12.9413   14.6912 H   0  0  0  0  0  0  0  0  0  0  0  0
    2.0259   14.3498   12.6851 H   0  0  0  0  0  0  0  0  0  0  0  0
  1  2  1  0
  2  3  1  0
  3  4  1  0
  4  5  1  0
  5  6  2  0
  6  7  1  0
  7  8  1  0
  7  9  2  0
  9 10  1  0
 10 11  2  0
 11 12  1  0
  3 13  1  0
 13 14  2  0
 13 15  1  0
 15 16  1  0
 16 17  1  0
 17 18  2  0
 17 19  1  0
 19 20  1  0
 20 21  1  0
 20 22  1  0
 19 23  1  0
 23 24  2  0
 24 25  1  0
 25 26  2  0
 26 27  1  0
 27 28  2  0
 28 29  1  0
 29 30  2  0
 30 31  1  0
 31 32  2  0
 26 33  1  0
 33 34  2  0
 11  5  1  0
 34 16  1  0
 34 23  1  0
 32 27  1  0
  1 35  1  0
  1 36  1  0
  1 37  1  0
  2 38  1  0
  2 39  1  0
  4 40  1  0
  4 41  1  0
  6 42  1  0
  9 43  1  0
 10 44  1  0
 15 45  1  0
 15 46  1  0
 20 47  1  0
 24 48  1  0
 28 49  1  0
 29 50  1  0
 30 51  1  0
 31 52  1  0
 32 53  1  0
M  END
>  <meeko>  (7) 
{"is_sidechain": [false], "free_energy": -5.013, "intermolecular_energy": -7.48, "internal_energy": -3.016}

$$$$
A7_meeko_out
     RDKit          3D

 53 56  0  0  0  0  0  0  0  0999 V2000
    3.2270   17.7010    5.3830 C   0  0  0  0  0  0  0  0  0  0  0  0
    1.8050   18.0010    4.9360 C   0  0  0  0  0  0  0  0  0  0  0  0
    0.8140   17.4160    5.8390 N   0  0  0  0  0  0  0  0  0  0  0  0
   -0.0140   16.3290    5.3090 C   0  0  0  0  0  0  0  0  0  0  0  0
    0.3890   14.9680    5.8140 C   0  0  0  0  0  0  0  0  0  0  0  0
    1.2870   14.1480    5.1140 C   0  0  0  0  0  0  0  0  0  0  0  0
    1.6050   12.8830    5.6030 C   0  0  0  0  0  0  0  0  0  0  0  0
    2.4660   12.1130    4.9250 F   0  0  0  0  0  0  0  0  0  0  0  0
    1.0390   12.4020    6.7790 C   0  0  0  0  0  0  0  0  0  0  0  0
    0.1350   13.2000    7.4760 C   0  0  0  0  0  0  0  0  0  0  0  0
   -0.1860   14.4650    6.9880 C   0  0  0  0  0  0  0  0  0  0  0  0
   -1.0630   15.2140    7.6710 F   0  0  0  0  0  0  0  0  0  0  0  0
    0.5640   18.0660    7.0510 C   0  0  0  0  0  0  0  0  0  0  0  0
    1.0180   17.6290    8.1140 O   0  0  0  0  0  0  0  0  0  0  0  0
   -0.3380   19.3110    7.0190 C   0  0  0  0  0  0  0  0  0  0  0  0
   -1.7090   18.9370    6.7930 N   0  0  0  0  0  0  0  0  0  0  0  0
   -2.3630   18.8890    5.5530 C   0  0  0  0  0  0  0  0  0  0  0  0
   -1.9500   19.3120    4.4860 O   0  0  0  0  0  0  0  0  0  0  0  0
   -3.5910   18.2690    5.7830 N   0  0  0  0  0  0  0  0  0  0  0  0
   -4.5920   18.0820    4.8000 C   0  0  0  0  0  0  0  0  0  0  0  0
   -4.9250   19.2750    4.2410 F   0  0  0  0  0  0  0  0  0  0  0  0
   -4.0970   17.3160    3.7950 F   0  0  0  0  0  0  0  0  0  0  0  0
   -3.6760   17.9330    7.1300 C   0  0  0  0  0  0  0  0  0  0  0  0
   -4.6180   17.3260    7.8950 C   0  0  0  0  0  0  0  0  0  0  0  0
   -4.4000   17.1170    9.2140 N   0  0  0  0  0  0  0  0  0  0  0  0
   -3.2090   17.5250    9.7400 C   0  0  0  0  0  0  0  0  0  0  0  0
   -2.9790   17.2800   11.1810 C   0  0  0  0  0  0  0  0  0  0  0  0
   -4.0140   17.4180   12.1260 C   0  0  0  0  0  0  0  0  0  0  0  0
   -3.7990   17.1870   13.4890 C   0  0  0  0  0  0  0  0  0  0  0  0
   -2.5370   16.8120   13.9410 C   0  0  0  0  0  0  0  0  0  0  0  0
   -1.4930   16.6690   13.0330 C   0  0  0  0  0  0  0  0  0  0  0  0
   -1.7140   16.9010   11.6700 C   0  0  0  0  0  0  0  0  0  0  0  0
   -2.2270   18.1430    9.0460 N   0  0  0  0  0  0  0  0  0  0  0  0
   -2.5120   18.3190    7.7580 C   0  0  0  0  0  0  0  0  0  0  0  0
    3.2716   17.6916    6.4821 H   0  0  0  0  0  0  0  0  0  0  0  0
    3.5337   16.7184    4.9952 H   0  0  0  0  0  0  0  0  0  0  0  0
    3.9045   18.4760    4.9952 H   0  0  0  0  0  0  0  0  0  0  0  0
    1.6629   19.0915    4.9106 H   0  0  0  0  0  0  0  0  0  0  0  0
    1.6607   17.5587    3.9392 H   0  0  0  0  0  0  0  0  0  0  0  0
   -1.0588   16.5133    5.5996 H   0  0  0  0  0  0  0  0  0  0  0  0
    0.1194   16.3224    4.2171 H   0  0  0  0  0  0  0  0  0  0  0  0
    1.7406   14.5047    4.1775 H   0  0  0  0  0  0  0  0  0  0  0  0
    1.3025   11.4022    7.1545 H   0  0  0  0  0  0  0  0  0  0  0  0
   -0.3230   12.8336    8.4066 H   0  0  0  0  0  0  0  0  0  0  0  0
   -0.2609   19.8382    7.9814 H   0  0  0  0  0  0  0  0  0  0  0  0
   -0.0092   19.9663    6.1990 H   0  0  0  0  0  0  0  0  0  0  0  0
   -5.4626   17.6128    5.2815 H   0  0  0  0  0  0  0  0  0  0  0  0
   -5.5654   17.0016    7.4398 H   0  0  0  0  0  0  0  0  0  0  0  0
   -5.0165   17.7148   11.7840 H   0  0  0  0  0  0  0  0  0  0  0  0
   -4.6274   17.3017   14.2036 H   0  0  0  0  0  0  0  0  0  0  0  0
   -2.3660   16.6294   15.0122 H   0  0  0  0  0  0  0  0  0  0  0  0
   -0.4938   16.3737   13.3857 H   0  0  0  0  0  0  0  0  0  0  0  0
   -0.8788   16.7843   10.9637 H   0  0  0  0  0  0  0  0  0  0  0  0
  1  2  1  0
  2  3  1  0
  3  4  1  0
  4  5  1  0
  5  6  2  0
  6  7  1  0
  7  8  1  0
  7  9  2  0
  9 10  1  0
 10 11  2  0
 11 12  1  0
  3 13  1  0
 13 14  2  0
 13 15  1  0
 15 16  1  0
 16 17  1  0
 17 18  2  0
 17 19  1  0
 19 20  1  0
 20 21  1  0
 20 22  1  0
 19 23  1  0
 23 24  2  0
 24 25  1  0
 25 26  2  0
 26 27  1  0
 27 28  2  0
 28 29  1  0
 29 30  2  0
 30 31  1  0
 31 32  2  0
 26 33  1  0
 33 34  2  0
 11  5  1  0
 34 16  1  0
 34 23  1  0
 32 27  1  0
  1 35  1  0
  1 36  1  0
  1 37  1  0
  2 38  1  0
  2 39  1  0
  4 40  1  0
  4 41  1  0
  6 42  1  0
  9 43  1  0
 10 44  1  0
 15 45  1  0
 15 46  1  0
 20 47  1  0
 24 48  1  0
 28 49  1  0
 29 50  1  0
 30 51  1  0
 31 52  1  0
 32 53  1  0
M  END
>  <meeko>  (8) 
{"is_sidechain": [false], "free_energy": -4.943, "intermolecular_energy": -8.487, "internal_energy": -1.905}

$$$$
A7_meeko_out
     RDKit          3D

 53 56  0  0  0  0  0  0  0  0999 V2000
    4.0030   16.8310   10.0900 C   0  0  0  0  0  0  0  0  0  0  0  0
    3.3610   15.8390    9.1320 C   0  0  0  0  0  0  0  0  0  0  0  0
    4.3500   15.1970    8.2670 N   0  0  0  0  0  0  0  0  0  0  0  0
    4.2510   15.4590    6.8290 C   0  0  0  0  0  0  0  0  0  0  0  0
    3.0310   14.8500    6.1910 C   0  0  0  0  0  0  0  0  0  0  0  0
    2.9670   13.4890    5.8510 C   0  0  0  0  0  0  0  0  0  0  0  0
    1.8290   12.9770    5.2320 C   0  0  0  0  0  0  0  0  0  0  0  0
    1.7820   11.6760    4.9170 F   0  0  0  0  0  0  0  0  0  0  0  0
    0.7440   13.7930    4.9300 C   0  0  0  0  0  0  0  0  0  0  0  0
    0.8000   15.1480    5.2470 C   0  0  0  0  0  0  0  0  0  0  0  0
    1.9380   15.6630    5.8650 C   0  0  0  0  0  0  0  0  0  0  0  0
    1.9750   16.9710    6.1580 F   0  0  0  0  0  0  0  0  0  0  0  0
    5.1700   14.2120    8.8250 C   0  0  0  0  0  0  0  0  0  0  0  0
    4.6880   13.2110    9.3640 O   0  0  0  0  0  0  0  0  0  0  0  0
    6.6900   14.4480    8.7900 C   0  0  0  0  0  0  0  0  0  0  0  0
    7.3730   13.2780    8.3070 N   0  0  0  0  0  0  0  0  0  0  0  0
    7.6930   12.1350    9.0550 C   0  0  0  0  0  0  0  0  0  0  0  0
    7.6070   11.9990   10.2640 O   0  0  0  0  0  0  0  0  0  0  0  0
    8.1410   11.1820    8.1390 N   0  0  0  0  0  0  0  0  0  0  0  0
    8.6300    9.9010    8.4890 C   0  0  0  0  0  0  0  0  0  0  0  0
    7.8920    8.9380    7.8790 F   0  0  0  0  0  0  0  0  0  0  0  0
    9.8970    9.7610    8.0230 F   0  0  0  0  0  0  0  0  0  0  0  0
    8.0810   11.7280    6.8610 C   0  0  0  0  0  0  0  0  0  0  0  0
    8.3830   11.2670    5.6210 C   0  0  0  0  0  0  0  0  0  0  0  0
    8.1970   12.0500    4.5340 N   0  0  0  0  0  0  0  0  0  0  0  0
    7.6900   13.3030    4.7250 C   0  0  0  0  0  0  0  0  0  0  0  0
    7.4800   14.1450    3.5270 C   0  0  0  0  0  0  0  0  0  0  0  0
    7.2770   15.5360    3.6290 C   0  0  0  0  0  0  0  0  0  0  0  0
    7.0780   16.3330    2.4970 C   0  0  0  0  0  0  0  0  0  0  0  0
    7.0750   15.7570    1.2310 C   0  0  0  0  0  0  0  0  0  0  0  0
    7.2710   14.3860    1.0960 C   0  0  0  0  0  0  0  0  0  0  0  0
    7.4700   13.5920    2.2310 C   0  0  0  0  0  0  0  0  0  0  0  0
    7.3730   13.8360    5.9270 N   0  0  0  0  0  0  0  0  0  0  0  0
    7.5870   13.0110    6.9500 C   0  0  0  0  0  0  0  0  0  0  0  0
    3.8029   16.5218   11.1265 H   0  0  0  0  0  0  0  0  0  0  0  0
    5.0892   16.8563    9.9181 H   0  0  0  0  0  0  0  0  0  0  0  0
    3.5812   17.8323    9.9181 H   0  0  0  0  0  0  0  0  0  0  0  0
    2.8437   15.0641    9.7167 H   0  0  0  0  0  0  0  0  0  0  0  0
    2.6561   16.3905    8.4925 H   0  0  0  0  0  0  0  0  0  0  0  0
    4.2180   16.5476    6.6748 H   0  0  0  0  0  0  0  0  0  0  0  0
    5.1294   14.9972    6.3544 H   0  0  0  0  0  0  0  0  0  0  0  0
    3.8164   12.8265    6.0737 H   0  0  0  0  0  0  0  0  0  0  0  0
   -0.1495   13.3723    4.4456 H   0  0  0  0  0  0  0  0  0  0  0  0
   -0.0483   15.8073    5.0112 H   0  0  0  0  0  0  0  0  0  0  0  0
    6.9090   15.2953    8.1236 H   0  0  0  0  0  0  0  0  0  0  0  0
    7.0386   14.6662    9.8102 H   0  0  0  0  0  0  0  0  0  0  0  0
    8.5831    9.8032    9.5836 H   0  0  0  0  0  0  0  0  0  0  0  0
    8.7819   10.2492    5.4990 H   0  0  0  0  0  0  0  0  0  0  0  0
    7.2750   16.0064    4.6234 H   0  0  0  0  0  0  0  0  0  0  0  0
    6.9237   17.4164    2.6081 H   0  0  0  0  0  0  0  0  0  0  0  0
    6.9183   16.3828    0.3400 H   0  0  0  0  0  0  0  0  0  0  0  0
    7.2695   13.9262    0.0967 H   0  0  0  0  0  0  0  0  0  0  0  0
    7.6224   12.5095    2.1084 H   0  0  0  0  0  0  0  0  0  0  0  0
  1  2  1  0
  2  3  1  0
  3  4  1  0
  4  5  1  0
  5  6  2  0
  6  7  1  0
  7  8  1  0
  7  9  2  0
  9 10  1  0
 10 11  2  0
 11 12  1  0
  3 13  1  0
 13 14  2  0
 13 15  1  0
 15 16  1  0
 16 17  1  0
 17 18  2  0
 17 19  1  0
 19 20  1  0
 20 21  1  0
 20 22  1  0
 19 23  1  0
 23 24  2  0
 24 25  1  0
 25 26  2  0
 26 27  1  0
 27 28  2  0
 28 29  1  0
 29 30  2  0
 30 31  1  0
 31 32  2  0
 26 33  1  0
 33 34  2  0
 11  5  1  0
 34 16  1  0
 34 23  1  0
 32 27  1  0
  1 35  1  0
  1 36  1  0
  1 37  1  0
  2 38  1  0
  2 39  1  0
  4 40  1  0
  4 41  1  0
  6 42  1  0
  9 43  1  0
 10 44  1  0
 15 45  1  0
 15 46  1  0
 20 47  1  0
 24 48  1  0
 28 49  1  0
 29 50  1  0
 30 51  1  0
 31 52  1  0
 32 53  1  0
M  END
>  <meeko>  (9) 
{"is_sidechain": [false], "free_energy": -4.932, "intermolecular_energy": -8.614, "internal_energy": -1.763}

$$$$
A7_meeko_out
     RDKit          3D

 53 56  0  0  0  0  0  0  0  0999 V2000
    3.5430   16.8470    8.2980 C   0  0  0  0  0  0  0  0  0  0  0  0
    4.5850   15.7450    8.1830 C   0  0  0  0  0  0  0  0  0  0  0  0
    4.7390   15.2800    6.8050 N   0  0  0  0  0  0  0  0  0  0  0  0
    4.2970   13.9150    6.5070 C   0  0  0  0  0  0  0  0  0  0  0  0
    2.7990   13.7700    6.4460 C   0  0  0  0  0  0  0  0  0  0  0  0
    2.0550   14.1690    5.3250 C   0  0  0  0  0  0  0  0  0  0  0  0
    0.6680   14.0450    5.3270 C   0  0  0  0  0  0  0  0  0  0  0  0
   -0.0280   14.4270    4.2480 F   0  0  0  0  0  0  0  0  0  0  0  0
   -0.0080   13.5380    6.4320 C   0  0  0  0  0  0  0  0  0  0  0  0
    0.7160   13.1530    7.5570 C   0  0  0  0  0  0  0  0  0  0  0  0
    2.1040   13.2770    7.5580 C   0  0  0  0  0  0  0  0  0  0  0  0
    2.7830   12.9050    8.6530 F   0  0  0  0  0  0  0  0  0  0  0  0
    5.4900   16.0660    5.9260 C   0  0  0  0  0  0  0  0  0  0  0  0
    4.9600   16.6340    4.9660 O   0  0  0  0  0  0  0  0  0  0  0  0
    7.0070   16.1510    6.1670 C   0  0  0  0  0  0  0  0  0  0  0  0
    7.6060   14.8460    6.0860 N   0  0  0  0  0  0  0  0  0  0  0  0
    7.8380   13.9710    7.1590 C   0  0  0  0  0  0  0  0  0  0  0  0
    7.7340   14.2210    8.3480 O   0  0  0  0  0  0  0  0  0  0  0  0
    8.2220   12.7540    6.5940 N   0  0  0  0  0  0  0  0  0  0  0  0
    8.6140   11.6150    7.3350 C   0  0  0  0  0  0  0  0  0  0  0  0
    7.8330   10.5530    7.0060 F   0  0  0  0  0  0  0  0  0  0  0  0
    9.8830   11.2730    6.9960 F   0  0  0  0  0  0  0  0  0  0  0  0
    8.2110   12.8820    5.2090 C   0  0  0  0  0  0  0  0  0  0  0  0
    8.4870   12.0410    4.1800 C   0  0  0  0  0  0  0  0  0  0  0  0
    8.3660   12.4610    2.9000 N   0  0  0  0  0  0  0  0  0  0  0  0
    7.9500   13.7430    2.6810 C   0  0  0  0  0  0  0  0  0  0  0  0
    7.8100   14.1850    1.2770 C   0  0  0  0  0  0  0  0  0  0  0  0
    6.6290   13.9510    0.5450 C   0  0  0  0  0  0  0  0  0  0  0  0
    6.4950   14.3680   -0.7840 C   0  0  0  0  0  0  0  0  0  0  0  0
    7.5430   15.0310   -1.4150 C   0  0  0  0  0  0  0  0  0  0  0  0
    8.7230   15.2760   -0.7200 C   0  0  0  0  0  0  0  0  0  0  0  0
    8.8530   14.8570    0.6090 C   0  0  0  0  0  0  0  0  0  0  0  0
    7.6650   14.6400    3.6510 N   0  0  0  0  0  0  0  0  0  0  0  0
    7.8100   14.1590    4.8840 C   0  0  0  0  0  0  0  0  0  0  0  0
    3.3457   17.0557    9.3598 H   0  0  0  0  0  0  0  0  0  0  0  0
    3.9175   17.7582    7.8087 H   0  0  0  0  0  0  0  0  0  0  0  0
    2.6123   16.5241    7.8087 H   0  0  0  0  0  0  0  0  0  0  0  0
    5.5518   16.1316    8.5377 H   0  0  0  0  0  0  0  0  0  0  0  0
    4.2492   14.8940    8.7938 H   0  0  0  0  0  0  0  0  0  0  0  0
    4.7158   13.6177    5.5343 H   0  0  0  0  0  0  0  0  0  0  0  0
    4.6518   13.2731    7.3268 H   0  0  0  0  0  0  0  0  0  0  0  0
    2.5683   14.5804    4.4433 H   0  0  0  0  0  0  0  0  0  0  0  0
   -1.1037   13.4422    6.4170 H   0  0  0  0  0  0  0  0  0  0  0  0
    0.1956   12.7533    8.4398 H   0  0  0  0  0  0  0  0  0  0  0  0
    7.4581   16.8038    5.4052 H   0  0  0  0  0  0  0  0  0  0  0  0
    7.1841   16.5609    7.1723 H   0  0  0  0  0  0  0  0  0  0  0  0
    8.5266   11.8554    8.4049 H   0  0  0  0  0  0  0  0  0  0  0  0
    8.8113   11.0108    4.3885 H   0  0  0  0  0  0  0  0  0  0  0  0
    5.7919   13.4277    1.0301 H   0  0  0  0  0  0  0  0  0  0  0  0
    5.5606   14.1715   -1.3302 H   0  0  0  0  0  0  0  0  0  0  0  0
    7.4389   15.3602   -2.4594 H   0  0  0  0  0  0  0  0  0  0  0  0
    9.5542   15.7993   -1.2153 H   0  0  0  0  0  0  0  0  0  0  0  0
    9.7924   15.0572    1.1452 H   0  0  0  0  0  0  0  0  0  0  0  0
  1  2  1  0
  2  3  1  0
  3  4  1  0
  4  5  1  0
  5  6  2  0
  6  7  1  0
  7  8  1  0
  7  9  2  0
  9 10  1  0
 10 11  2  0
 11 12  1  0
  3 13  1  0
 13 14  2  0
 13 15  1  0
 15 16  1  0
 16 17  1  0
 17 18  2  0
 17 19  1  0
 19 20  1  0
 20 21  1  0
 20 22  1  0
 19 23  1  0
 23 24  2  0
 24 25  1  0
 25 26  2  0
 26 27  1  0
 27 28  2  0
 28 29  1  0
 29 30  2  0
 30 31  1  0
 31 32  2  0
 26 33  1  0
 33 34  2  0
 11  5  1  0
 34 16  1  0
 34 23  1  0
 32 27  1  0
  1 35  1  0
  1 36  1  0
  1 37  1  0
  2 38  1  0
  2 39  1  0
  4 40  1  0
  4 41  1  0
  6 42  1  0
  9 43  1  0
 10 44  1  0
 15 45  1  0
 15 46  1  0
 20 47  1  0
 24 48  1  0
 28 49  1  0
 29 50  1  0
 30 51  1  0
 31 52  1  0
 32 53  1  0
M  END
>  <meeko>  (10) 
{"is_sidechain": [false], "free_energy": -4.929, "intermolecular_energy": -8.626, "internal_energy": -1.747}

$$$$
