
     RDKit          3D

 53 56  0  0  0  0  0  0  0  0999 V2000
   -1.3473   -2.3590    2.7264 C   0  0  0  0  0  0  0  0  0  0  0  0
   -2.4809   -1.6376    2.0136 C   0  0  0  0  0  0  0  0  0  0  0  0
   -2.0692   -1.1312    0.7045 N   0  0  0  0  0  0  0  0  0  0  0  0
   -1.4649    0.1276    0.6483 C   0  0  0  0  0  0  0  0  0  0  0  0
   -1.3488    0.8263    1.6600 O   0  0  0  0  0  0  0  0  0  0  0  0
   -0.9998    0.6329   -0.7288 C   0  0  0  0  0  0  0  0  0  0  0  0
   -0.1896    1.8135   -0.5879 N   0  0  0  0  0  0  0  0  0  0  0  0
   -0.6460    3.1397   -0.6053 C   0  0  0  0  0  0  0  0  0  0  0  0
   -1.7609    3.5309   -0.9078 O   0  0  0  0  0  0  0  0  0  0  0  0
    0.4356    3.9304   -0.2150 N   0  0  0  0  0  0  0  0  0  0  0  0
    1.5220    3.1014    0.0478 C   0  0  0  0  0  0  0  0  0  0  0  0
    1.1407    1.7928   -0.1564 C   0  0  0  0  0  0  0  0  0  0  0  0
    1.9118    0.7205    0.0148 N   0  0  0  0  0  0  0  0  0  0  0  0
    3.1658    1.0146    0.4268 C   0  0  0  0  0  0  0  0  0  0  0  0
    3.6417    2.2762    0.6445 N   0  0  0  0  0  0  0  0  0  0  0  0
    2.7994    3.3158    0.4526 C   0  0  0  0  0  0  0  0  0  0  0  0
    4.0947   -0.1141    0.6515 C   0  0  0  0  0  0  0  0  0  0  0  0
    3.6859   -1.4511    0.4749 C   0  0  0  0  0  0  0  0  0  0  0  0
    4.5630   -2.5202    0.6866 C   0  0  0  0  0  0  0  0  0  0  0  0
    5.8746   -2.2771    1.0818 C   0  0  0  0  0  0  0  0  0  0  0  0
    6.3085   -0.9681    1.2655 C   0  0  0  0  0  0  0  0  0  0  0  0
    5.4282    0.0982    1.0527 C   0  0  0  0  0  0  0  0  0  0  0  0
    0.4198    5.3440   -0.1645 C   0  0  0  0  0  0  0  0  0  0  0  0
    1.0245    5.7766    0.9715 F   0  0  0  0  0  0  0  0  0  0  0  0
    1.1524    5.8379   -1.1956 F   0  0  0  0  0  0  0  0  0  0  0  0
   -2.1021   -2.0727   -0.4167 C   0  0  0  0  0  0  0  0  0  0  0  0
   -3.1405   -1.7341   -1.4545 C   0  0  0  0  0  0  0  0  0  0  0  0
   -4.4225   -1.2826   -1.1068 C   0  0  0  0  0  0  0  0  0  0  0  0
   -5.3611   -1.0126   -2.1005 C   0  0  0  0  0  0  0  0  0  0  0  0
   -6.5795   -0.5795   -1.7534 F   0  0  0  0  0  0  0  0  0  0  0  0
   -5.0571   -1.1911   -3.4457 C   0  0  0  0  0  0  0  0  0  0  0  0
   -3.7930   -1.6534   -3.8045 C   0  0  0  0  0  0  0  0  0  0  0  0
   -2.8533   -1.9254   -2.8117 C   0  0  0  0  0  0  0  0  0  0  0  0
   -1.6444   -2.3744   -3.1770 F   0  0  0  0  0  0  0  0  0  0  0  0
   -0.4928   -1.6930    2.8847 H   0  0  0  0  0  0  0  0  0  0  0  0
   -0.9968   -3.2170    2.1438 H   0  0  0  0  0  0  0  0  0  0  0  0
   -1.6829   -2.7230    3.7023 H   0  0  0  0  0  0  0  0  0  0  0  0
   -3.3381   -2.3066    1.8789 H   0  0  0  0  0  0  0  0  0  0  0  0
   -2.8240   -0.8034    2.6359 H   0  0  0  0  0  0  0  0  0  0  0  0
   -1.8868    0.8874   -1.3167 H   0  0  0  0  0  0  0  0  0  0  0  0
   -0.4100   -0.1218   -1.2536 H   0  0  0  0  0  0  0  0  0  0  0  0
    3.2030    4.3025    0.6453 H   0  0  0  0  0  0  0  0  0  0  0  0
    2.6649   -1.6719    0.1678 H   0  0  0  0  0  0  0  0  0  0  0  0
    4.2182   -3.5407    0.5425 H   0  0  0  0  0  0  0  0  0  0  0  0
    6.5575   -3.1061    1.2473 H   0  0  0  0  0  0  0  0  0  0  0  0
    7.3316   -0.7710    1.5752 H   0  0  0  0  0  0  0  0  0  0  0  0
    5.7960    1.1121    1.2052 H   0  0  0  0  0  0  0  0  0  0  0  0
   -0.5932    5.7524   -0.2165 H   0  0  0  0  0  0  0  0  0  0  0  0
   -2.3094   -3.0817   -0.0400 H   0  0  0  0  0  0  0  0  0  0  0  0
   -1.0997   -2.1046   -0.8558 H   0  0  0  0  0  0  0  0  0  0  0  0
   -4.7057   -1.1307   -0.0689 H   0  0  0  0  0  0  0  0  0  0  0  0
   -5.8061   -0.9728   -4.2005 H   0  0  0  0  0  0  0  0  0  0  0  0
   -3.5338   -1.8055   -4.8478 H   0  0  0  0  0  0  0  0  0  0  0  0
  1  2  1  0
  2  3  1  0
  3  4  1  0
  4  5  2  0
  4  6  1  0
  6  7  1  0
  7  8  1  0
  8  9  2  0
  8 10  1  0
 10 11  1  0
 11 12  2  0
 12 13  1  0
 13 14  2  0
 14 15  1  0
 15 16  2  0
 14 17  1  0
 17 18  2  0
 18 19  1  0
 19 20  2  0
 20 21  1  0
 21 22  2  0
 10 23  1  0
 23 24  1  0
 23 25  1  0
  3 26  1  0
 26 27  1  0
 27 28  2  0
 28 29  1  0
 29 30  1  0
 29 31  2  0
 31 32  1  0
 32 33  2  0
 33 34  1  0
 12  7  1  0
 22 17  1  0
 33 27  1  0
 16 11  1  0
  1 35  1  0
  1 36  1  0
  1 37  1  0
  2 38  1  0
  2 39  1  0
  6 40  1  0
  6 41  1  0
 16 42  1  0
 18 43  1  0
 19 44  1  0
 20 45  1  0
 21 46  1  0
 22 47  1  0
 23 48  1  0
 26 49  1  0
 26 50  1  0
 28 51  1  0
 31 52  1  0
 32 53  1  0
M  END
$$$$
