A7_meeko_out
 OpenBabel07202612303D

 53 56  0  0  0  0  0  0  0  0999 V2000
    0.7470   18.7910    3.8180 C   0  0  0  0  0  0  0  0  0  0  0  0
    1.5130   18.0300    4.8880 C   0  0  0  0  0  0  0  0  0  0  0  0
    0.6160   17.3560    5.8270 N   0  0  0  0  0  0  0  0  0  0  0  0
   -0.1660   16.2290    5.3130 C   0  0  0  0  0  0  0  0  0  0  0  0
    0.3130   14.8910    5.8100 C   0  0  0  0  0  0  0  0  0  0  0  0
    1.2410   14.1170    5.0950 C   0  0  0  0  0  0  0  0  0  0  0  0
    1.6300   12.8700    5.5780 C   0  0  0  0  0  0  0  0  0  0  0  0
    2.5190   12.1450    4.8870 F   0  0  0  0  0  0  0  0  0  0  0  0
    1.1080   12.3610    6.7630 C   0  0  0  0  0  0  0  0  0  0  0  0
    0.1740   13.1110    7.4740 C   0  0  0  0  0  0  0  0  0  0  0  0
   -0.2180   14.3580    6.9920 C   0  0  0  0  0  0  0  0  0  0  0  0
   -1.1210   15.0620    7.6880 F   0  0  0  0  0  0  0  0  0  0  0  0
    0.3930   17.9570    7.0690 C   0  0  0  0  0  0  0  0  0  0  0  0
   -0.7410   18.3040    7.4150 O   0  0  0  0  0  0  0  0  0  0  0  0
    1.6170   18.2200    7.9640 C   0  0  0  0  0  0  0  0  0  0  0  0
    1.8640   17.0950    8.8250 N   0  0  0  0  0  0  0  0  0  0  0  0
    1.1430   16.7600    9.9820 C   0  0  0  0  0  0  0  0  0  0  0  0
    0.3050   17.4410   10.5490 O   0  0  0  0  0  0  0  0  0  0  0  0
    1.5820   15.4920   10.3630 N   0  0  0  0  0  0  0  0  0  0  0  0
    1.1530   14.8100   11.5260 C   0  0  0  0  0  0  0  0  0  0  0  0
    1.4540   15.5400   12.6310 F   0  0  0  0  0  0  0  0  0  0  0  0
   -0.1990   14.6930   11.5050 F   0  0  0  0  0  0  0  0  0  0  0  0
    2.5390   15.0580    9.4500 C   0  0  0  0  0  0  0  0  0  0  0  0
    3.2840   13.9310    9.3260 C   0  0  0  0  0  0  0  0  0  0  0  0
    4.1430   13.7880    8.2910 N   0  0  0  0  0  0  0  0  0  0  0  0
    4.2260   14.8010    7.3800 C   0  0  0  0  0  0  0  0  0  0  0  0
    5.1600   14.6260    6.2470 C   0  0  0  0  0  0  0  0  0  0  0  0
    5.7960   15.7270    5.6390 C   0  0  0  0  0  0  0  0  0  0  0  0
    6.6790   15.5630    4.5670 C   0  0  0  0  0  0  0  0  0  0  0  0
    6.9490   14.2900    4.0740 C   0  0  0  0  0  0  0  0  0  0  0  0
    6.3350   13.1830    4.6510 C   0  0  0  0  0  0  0  0  0  0  0  0
    5.4520   13.3510    5.7230 C   0  0  0  0  0  0  0  0  0  0  0  0
    3.5240   15.9550    7.4400 N   0  0  0  0  0  0  0  0  0  0  0  0
    2.7030   16.0280    8.4860 C   0  0  0  0  0  0  0  0  0  0  0  0
    0.0444   19.4891    4.2966 H   0  0  0  0  0  0  0  0  0  0  0  0
    1.4542   19.3545    3.1916 H   0  0  0  0  0  0  0  0  0  0  0  0
    0.1882   18.0802    3.1916 H   0  0  0  0  0  0  0  0  0  0  0  0
    2.1496   17.2764    4.4013 H   0  0  0  0  0  0  0  0  0  0  0  0
    2.1172   18.7541    5.4543 H   0  0  0  0  0  0  0  0  0  0  0  0
   -1.2131   16.3613    5.6230 H   0  0  0  0  0  0  0  0  0  0  0  0
   -0.0525   16.2279    4.2189 H   0  0  0  0  0  0  0  0  0  0  0  0
    1.6614   14.4961    4.1519 H   0  0  0  0  0  0  0  0  0  0  0  0
    1.4294   11.3768    7.1345 H   0  0  0  0  0  0  0  0  0  0  0  0
   -0.2515   12.7210    8.4104 H   0  0  0  0  0  0  0  0  0  0  0  0
    2.4992   18.3904    7.3294 H   0  0  0  0  0  0  0  0  0  0  0  0
    1.4190   19.1060    8.5852 H   0  0  0  0  0  0  0  0  0  0  0  0
    1.6487   13.8283   11.5511 H   0  0  0  0  0  0  0  0  0  0  0  0
    3.1889   13.1283   10.0720 H   0  0  0  0  0  0  0  0  0  0  0  0
    5.5929   16.7399    6.0168 H   0  0  0  0  0  0  0  0  0  0  0  0
    7.1608   16.4415    4.1129 H   0  0  0  0  0  0  0  0  0  0  0  0
    7.6447   14.1596    3.2320 H   0  0  0  0  0  0  0  0  0  0  0  0
    6.5440   12.1748    4.2640 H   0  0  0  0  0  0  0  0  0  0  0  0
    4.9738   12.4659    6.1678 H   0  0  0  0  0  0  0  0  0  0  0  0
  1  2  1  0  0  0  0
  1 35  1  0  0  0  0
  1 36  1  0  0  0  0
  1 37  1  0  0  0  0
  2  3  1  0  0  0  0
  2 38  1  0  0  0  0
  2 39  1  0  0  0  0
  3  4  1  0  0  0  0
  3 13  1  0  0  0  0
  4  5  1  0  0  0  0
  4 40  1  0  0  0  0
  4 41  1  0  0  0  0
  5  6  2  0  0  0  0
  6  7  1  0  0  0  0
  6 42  1  0  0  0  0
  7  8  1  0  0  0  0
  7  9  2  0  0  0  0
  9 10  1  0  0  0  0
  9 43  1  0  0  0  0
 10 11  2  0  0  0  0
 10 44  1  0  0  0  0
 11 12  1  0  0  0  0
 11  5  1  0  0  0  0
 13 14  2  0  0  0  0
 13 15  1  0  0  0  0
 15 16  1  0  0  0  0
 15 45  1  0  0  0  0
 15 46  1  0  0  0  0
 16 17  1  0  0  0  0
 17 18  2  0  0  0  0
 17 19  1  0  0  0  0
 19 20  1  0  0  0  0
 19 23  1  0  0  0  0
 20 21  1  0  0  0  0
 20 22  1  0  0  0  0
 20 47  1  0  0  0  0
 23 24  2  0  0  0  0
 24 25  1  0  0  0  0
 24 48  1  0  0  0  0
 25 26  2  0  0  0  0
 26 27  1  0  0  0  0
 26 33  1  0  0  0  0
 27 28  2  0  0  0  0
 28 29  1  0  0  0  0
 28 49  1  0  0  0  0
 29 30  2  0  0  0  0
 29 50  1  0  0  0  0
 30 31  1  0  0  0  0
 30 51  1  0  0  0  0
 31 32  2  0  0  0  0
 31 52  1  0  0  0  0
 32 27  1  0  0  0  0
 32 53  1  0  0  0  0
 33 34  2  0  0  0  0
 34 16  1  0  0  0  0
 34 23  1  0  0  0  0
M  END
>  <meeko>
{"is_sidechain": [false], "free_energy": -5.751, "intermolecular_energy": -8.44, "internal_energy": -3.138}

$$$$
