
     RDKit          3D

 56 59  0  0  0  0  0  0  0  0999 V2000
   -3.1382   -1.9375    0.6959 C   0  0  0  0  0  0  0  0  0  0  0  0
   -1.9322   -1.5227   -0.1329 C   0  0  0  0  0  0  0  0  0  0  0  0
   -1.3815   -0.2209    0.2563 N   0  0  0  0  0  0  0  0  0  0  0  0
   -0.4793   -0.0285    1.3029 C   0  0  0  0  0  0  0  0  0  0  0  0
   -0.1850    1.1050    1.6984 O   0  0  0  0  0  0  0  0  0  0  0  0
    0.1355   -1.2503    1.9988 C   0  0  0  0  0  0  0  0  0  0  0  0
    1.0655   -1.9971    1.1905 N   0  0  0  0  0  0  0  0  0  0  0  0
    1.0709   -3.3886    1.0002 C   0  0  0  0  0  0  0  0  0  0  0  0
    0.2542   -4.1865    1.4298 O   0  0  0  0  0  0  0  0  0  0  0  0
    2.2012   -3.6754    0.2085 N   0  0  0  0  0  0  0  0  0  0  0  0
    2.8689   -2.4760   -0.0431 C   0  0  0  0  0  0  0  0  0  0  0  0
    2.1840   -1.4447    0.5605 C   0  0  0  0  0  0  0  0  0  0  0  0
    2.5388   -0.1649    0.5321 N   0  0  0  0  0  0  0  0  0  0  0  0
    3.6669    0.0832   -0.1665 C   0  0  0  0  0  0  0  0  0  0  0  0
    4.4154   -0.8682   -0.7978 N   0  0  0  0  0  0  0  0  0  0  0  0
    3.9990   -2.1516   -0.7228 C   0  0  0  0  0  0  0  0  0  0  0  0
    4.1148    1.4883   -0.2598 C   0  0  0  0  0  0  0  0  0  0  0  0
    5.3010    1.8420   -0.9319 C   0  0  0  0  0  0  0  0  0  0  0  0
    5.7232    3.1728   -1.0208 C   0  0  0  0  0  0  0  0  0  0  0  0
    4.9662    4.1846   -0.4382 C   0  0  0  0  0  0  0  0  0  0  0  0
    3.7891    3.8672    0.2321 C   0  0  0  0  0  0  0  0  0  0  0  0
    3.3700    2.5357    0.3192 C   0  0  0  0  0  0  0  0  0  0  0  0
    2.6239   -4.9730   -0.2314 C   0  0  0  0  0  0  0  0  0  0  0  0
   -1.8774    0.9652   -0.4493 C   0  0  0  0  0  0  0  0  0  0  0  0
   -3.2666    1.4001   -0.0159 C   0  0  0  0  0  0  0  0  0  0  0  0
   -3.4518    1.8316    1.3124 C   0  0  0  0  0  0  0  0  0  0  0  0
   -4.7030    2.2369    1.7609 C   0  0  0  0  0  0  0  0  0  0  0  0
   -4.8539    2.6353    3.0304 F   0  0  0  0  0  0  0  0  0  0  0  0
   -5.7976    2.2355    0.9116 C   0  0  0  0  0  0  0  0  0  0  0  0
   -5.6365    1.8274   -0.4118 C   0  0  0  0  0  0  0  0  0  0  0  0
   -4.3780    1.4106   -0.8966 C   0  0  0  0  0  0  0  0  0  0  0  0
   -4.2588    0.9903   -2.3468 C   0  0  0  0  0  0  0  0  0  0  0  0
   -3.3500    1.7352   -3.0343 F   0  0  0  0  0  0  0  0  0  0  0  0
   -5.4242    1.0951   -3.0451 F   0  0  0  0  0  0  0  0  0  0  0  0
   -3.8659   -0.3061   -2.4828 F   0  0  0  0  0  0  0  0  0  0  0  0
   -2.9182   -1.9181    1.7672 H   0  0  0  0  0  0  0  0  0  0  0  0
   -3.9923   -1.2786    0.5205 H   0  0  0  0  0  0  0  0  0  0  0  0
   -3.4454   -2.9535    0.4285 H   0  0  0  0  0  0  0  0  0  0  0  0
   -2.1920   -1.4944   -1.1957 H   0  0  0  0  0  0  0  0  0  0  0  0
   -1.1631   -2.2872   -0.0356 H   0  0  0  0  0  0  0  0  0  0  0  0
    0.6756   -0.9042    2.8885 H   0  0  0  0  0  0  0  0  0  0  0  0
   -0.6622   -1.9073    2.3570 H   0  0  0  0  0  0  0  0  0  0  0  0
    4.6143   -2.8829   -1.2311 H   0  0  0  0  0  0  0  0  0  0  0  0
    5.9137    1.0712   -1.3971 H   0  0  0  0  0  0  0  0  0  0  0  0
    6.6437    3.4148   -1.5456 H   0  0  0  0  0  0  0  0  0  0  0  0
    5.2927    5.2189   -0.5059 H   0  0  0  0  0  0  0  0  0  0  0  0
    3.1918    4.6515    0.6902 H   0  0  0  0  0  0  0  0  0  0  0  0
    2.4422    2.3186    0.8502 H   0  0  0  0  0  0  0  0  0  0  0  0
    3.6049   -5.1969    0.1974 H   0  0  0  0  0  0  0  0  0  0  0  0
    2.6870   -4.9820   -1.3233 H   0  0  0  0  0  0  0  0  0  0  0  0
    1.9098   -5.7348    0.0930 H   0  0  0  0  0  0  0  0  0  0  0  0
   -1.1978    1.8132   -0.2989 H   0  0  0  0  0  0  0  0  0  0  0  0
   -1.8243    0.7453   -1.5191 H   0  0  0  0  0  0  0  0  0  0  0  0
   -2.6192    1.8601    2.0115 H   0  0  0  0  0  0  0  0  0  0  0  0
   -6.7660    2.5570    1.2822 H   0  0  0  0  0  0  0  0  0  0  0  0
   -6.5041    1.8390   -1.0715 H   0  0  0  0  0  0  0  0  0  0  0  0
  1  2  1  0
  2  3  1  0
  3  4  1  0
  4  5  2  0
  4  6  1  0
  6  7  1  0
  7  8  1  0
  8  9  2  0
  8 10  1  0
 10 11  1  0
 11 12  2  0
 12 13  1  0
 13 14  2  0
 14 15  1  0
 15 16  2  0
 14 17  1  0
 17 18  2  0
 18 19  1  0
 19 20  2  0
 20 21  1  0
 21 22  2  0
 10 23  1  0
  3 24  1  0
 24 25  1  0
 25 26  2  0
 26 27  1  0
 27 28  1  0
 27 29  2  0
 29 30  1  0
 30 31  2  0
 31 32  1  0
 32 33  1  0
 32 34  1  0
 32 35  1  0
 12  7  1  0
 22 17  1  0
 31 25  1  0
 16 11  1  0
  1 36  1  0
  1 37  1  0
  1 38  1  0
  2 39  1  0
  2 40  1  0
  6 41  1  0
  6 42  1  0
 16 43  1  0
 18 44  1  0
 19 45  1  0
 20 46  1  0
 21 47  1  0
 22 48  1  0
 23 49  1  0
 23 50  1  0
 23 51  1  0
 24 52  1  0
 24 53  1  0
 26 54  1  0
 29 55  1  0
 30 56  1  0
M  END
$$$$
