A17_meeko_out
 OpenBabel07202615173D

 56 59  0  0  0  0  0  0  0  0999 V2000
    7.0590   16.1180    3.7520 C   0  0  0  0  0  0  0  0  0  0  0  0
    8.3530   15.5110    3.2330 C   0  0  0  0  0  0  0  0  0  0  0  0
    8.1540   14.2500    2.5110 N   0  0  0  0  0  0  0  0  0  0  0  0
    7.4350   14.3040    1.2350 C   0  0  0  0  0  0  0  0  0  0  0  0
    8.1470   15.1110    0.1630 C   0  0  0  0  0  0  0  0  0  0  0  0
    9.5060   14.8420   -0.0890 C   0  0  0  0  0  0  0  0  0  0  0  0
   10.2060   15.5530   -1.0560 C   0  0  0  0  0  0  0  0  0  0  0  0
   11.4990   15.2830   -1.2710 F   0  0  0  0  0  0  0  0  0  0  0  0
    9.5820   16.5390   -1.8040 C   0  0  0  0  0  0  0  0  0  0  0  0
    8.2320   16.8130   -1.5830 C   0  0  0  0  0  0  0  0  0  0  0  0
    7.4950   16.1070   -0.6090 C   0  0  0  0  0  0  0  0  0  0  0  0
    6.0300   16.4390   -0.4220 C   0  0  0  0  0  0  0  0  0  0  0  0
    5.7610   16.9360    0.8170 F   0  0  0  0  0  0  0  0  0  0  0  0
    5.2020   15.3680   -0.5770 F   0  0  0  0  0  0  0  0  0  0  0  0
    5.5890   17.3730   -1.3080 F   0  0  0  0  0  0  0  0  0  0  0  0
    8.6720   13.0200    2.9180 C   0  0  0  0  0  0  0  0  0  0  0  0
    9.7860   12.6360    2.5440 O   0  0  0  0  0  0  0  0  0  0  0  0
    7.8560   12.1410    3.8750 C   0  0  0  0  0  0  0  0  0  0  0  0
    7.8800   12.5680    5.2500 N   0  0  0  0  0  0  0  0  0  0  0  0
    8.9700   12.4750    6.1320 C   0  0  0  0  0  0  0  0  0  0  0  0
   10.0930   12.0830    5.8630 O   0  0  0  0  0  0  0  0  0  0  0  0
    8.5070   12.9340    7.3820 N   0  0  0  0  0  0  0  0  0  0  0  0
    9.2700   13.0080    8.5940 C   0  0  0  0  0  0  0  0  0  0  0  0
    7.1590   13.2650    7.2500 C   0  0  0  0  0  0  0  0  0  0  0  0
    6.2160   13.7370    8.1070 C   0  0  0  0  0  0  0  0  0  0  0  0
    4.9540   13.9710    7.6840 N   0  0  0  0  0  0  0  0  0  0  0  0
    4.6620   13.7150    6.3760 C   0  0  0  0  0  0  0  0  0  0  0  0
    3.2850   13.9830    5.9100 C   0  0  0  0  0  0  0  0  0  0  0  0
    2.4270   12.9430    5.5050 C   0  0  0  0  0  0  0  0  0  0  0  0
    1.1230   13.1990    5.0660 C   0  0  0  0  0  0  0  0  0  0  0  0
    0.6450   14.5050    5.0230 C   0  0  0  0  0  0  0  0  0  0  0  0
    1.4690   15.5540    5.4180 C   0  0  0  0  0  0  0  0  0  0  0  0
    2.7720   15.2950    5.8560 C   0  0  0  0  0  0  0  0  0  0  0  0
    5.5430   13.2400    5.4700 N   0  0  0  0  0  0  0  0  0  0  0  0
    6.7650   13.0380    5.9500 C   0  0  0  0  0  0  0  0  0  0  0  0
    7.0674   16.1140    4.8520 H   0  0  0  0  0  0  0  0  0  0  0  0
    6.9682   17.1527    3.3897 H   0  0  0  0  0  0  0  0  0  0  0  0
    6.2053   15.5264    3.3897 H   0  0  0  0  0  0  0  0  0  0  0  0
    8.8282   16.2321    2.5517 H   0  0  0  0  0  0  0  0  0  0  0  0
    8.9826   15.2897    4.1074 H   0  0  0  0  0  0  0  0  0  0  0  0
    7.3056   13.2758    0.8662 H   0  0  0  0  0  0  0  0  0  0  0  0
    6.4756   14.8059    1.4292 H   0  0  0  0  0  0  0  0  0  0  0  0
   10.0202   14.0587    0.4872 H   0  0  0  0  0  0  0  0  0  0  0  0
   10.1455   17.0998   -2.5642 H   0  0  0  0  0  0  0  0  0  0  0  0
    7.7339   17.5926   -2.1781 H   0  0  0  0  0  0  0  0  0  0  0  0
    6.8102   12.1418    3.5339 H   0  0  0  0  0  0  0  0  0  0  0  0
    8.3175   11.1428    3.8508 H   0  0  0  0  0  0  0  0  0  0  0  0
    8.5927   12.9423    9.4583 H   0  0  0  0  0  0  0  0  0  0  0  0
    9.9880   12.1753    8.6267 H   0  0  0  0  0  0  0  0  0  0  0  0
    9.8146   13.9632    8.6267 H   0  0  0  0  0  0  0  0  0  0  0  0
    6.4827   13.9307    9.1564 H   0  0  0  0  0  0  0  0  0  0  0  0
    2.7899   11.9050    5.5343 H   0  0  0  0  0  0  0  0  0  0  0  0
    0.4750   12.3665    4.7545 H   0  0  0  0  0  0  0  0  0  0  0  0
   -0.3798   14.7071    4.6782 H   0  0  0  0  0  0  0  0  0  0  0  0
    1.0955   16.5882    5.3859 H   0  0  0  0  0  0  0  0  0  0  0  0
    3.4114   16.1348    6.1656 H   0  0  0  0  0  0  0  0  0  0  0  0
  1  2  1  0  0  0  0
  1 36  1  0  0  0  0
  1 37  1  0  0  0  0
  1 38  1  0  0  0  0
  2  3  1  0  0  0  0
  2 39  1  0  0  0  0
  2 40  1  0  0  0  0
  3  4  1  0  0  0  0
  3 16  1  0  0  0  0
  4  5  1  0  0  0  0
  4 41  1  0  0  0  0
  4 42  1  0  0  0  0
  5  6  2  0  0  0  0
  6  7  1  0  0  0  0
  6 43  1  0  0  0  0
  7  8  1  0  0  0  0
  7  9  2  0  0  0  0
  9 10  1  0  0  0  0
  9 44  1  0  0  0  0
 10 11  2  0  0  0  0
 10 45  1  0  0  0  0
 11 12  1  0  0  0  0
 11  5  1  0  0  0  0
 12 13  1  0  0  0  0
 12 14  1  0  0  0  0
 12 15  1  0  0  0  0
 16 17  2  0  0  0  0
 16 18  1  0  0  0  0
 18 19  1  0  0  0  0
 18 46  1  0  0  0  0
 18 47  1  0  0  0  0
 19 20  1  0  0  0  0
 20 21  2  0  0  0  0
 20 22  1  0  0  0  0
 22 23  1  0  0  0  0
 22 24  1  0  0  0  0
 23 48  1  0  0  0  0
 23 49  1  0  0  0  0
 23 50  1  0  0  0  0
 24 25  2  0  0  0  0
 25 26  1  0  0  0  0
 25 51  1  0  0  0  0
 26 27  2  0  0  0  0
 27 28  1  0  0  0  0
 27 34  1  0  0  0  0
 28 29  2  0  0  0  0
 29 30  1  0  0  0  0
 29 52  1  0  0  0  0
 30 31  2  0  0  0  0
 30 53  1  0  0  0  0
 31 32  1  0  0  0  0
 31 54  1  0  0  0  0
 32 33  2  0  0  0  0
 32 55  1  0  0  0  0
 33 28  1  0  0  0  0
 33 56  1  0  0  0  0
 34 35  2  0  0  0  0
 35 19  1  0  0  0  0
 35 24  1  0  0  0  0
M  END
>  <meeko>
{"is_sidechain": [false], "free_energy": -6.744, "intermolecular_energy": -9.897, "internal_energy": -1.745}

$$$$
