emap3_Bn-3CF3_4F_Me
 OpenBabel07042618103D

 35 38  0  0  0  0  0  0  0  0999 V2000
    5.5450   14.8210    7.0520 C   0  0  0  0  0  2  0  0  0  0  0  0
    5.6850   13.9850    8.2370 N   0  0  0  0  0  0  0  0  0  0  0  0
    4.8560   13.8870    9.2920 C   0  0  0  0  0  0  0  0  0  0  0  0
    5.3770   13.0350   10.2120 C   0  0  0  0  0  0  0  0  0  0  0  0
    4.7050   12.7900   11.3990 C   0  0  0  0  0  2  0  0  0  0  0  0
    3.5160   13.4370   11.5890 N   0  0  0  0  0  0  0  0  0  0  0  0
    2.9990   14.3010   10.6500 C   0  0  0  0  0  0  0  0  0  0  0  0
    3.6810   14.5320    9.4830 N   0  0  0  0  0  2  0  0  0  0  0  0
    6.5570   12.5680    9.7700 N   0  0  0  0  0  0  0  0  0  0  0  0
    6.7210   13.1710    8.5650 C   0  0  0  0  0  0  0  0  0  0  0  0
    7.7300   12.9980    7.8300 O   0  0  0  0  0  0  0  0  0  0  0  0
    7.4650   11.6500   10.4400 C   0  0  0  0  0  1  0  0  0  0  0  0
    1.7140   14.9800   10.9030 C   0  0  0  0  0  0  0  0  0  0  0  0
    1.2580   15.9820   10.0340 C   0  0  0  0  0  3  0  0  0  0  0  0
    0.0400   16.6250   10.2730 C   0  0  0  0  0  3  0  0  0  0  0  0
   -0.7310   16.2710   11.3830 C   0  0  0  0  0  3  0  0  0  0  0  0
   -0.2850   15.2740   12.2540 C   0  0  0  0  0  3  0  0  0  0  0  0
    0.9330   14.6310   12.0150 C   0  0  0  0  0  3  0  0  0  0  0  0
    3.2240   15.1880    6.0510 N   0  0  0  0  0  0  0  0  0  0  0  0
    4.3920   14.3640    6.2120 C   0  0  0  0  0  0  0  0  0  0  0  0
    4.4390   13.2240    5.6740 O   0  0  0  0  0  0  0  0  0  0  0  0
    3.4050   17.6100    5.7990 C   0  0  0  0  0  1  0  0  0  0  0  0
    3.0960   16.4650    6.7440 C   0  0  0  0  0  2  0  0  0  0  0  0
    2.0800   14.6960    5.2910 C   0  0  0  0  0  2  0  0  0  0  0  0
    0.8180   14.7990    6.0940 C   0  0  0  0  0  0  0  0  0  0  0  0
    0.3570   13.7250    6.8930 C   0  0  0  0  0  0  0  0  0  0  0  0
   -0.8350   13.8810    7.6190 C   0  0  0  0  0  3  0  0  0  0  0  0
   -1.5540   15.0760    7.5650 C   0  0  0  0  0  3  0  0  0  0  0  0
   -1.0900   16.1340    6.7850 C   0  0  0  0  0  0  0  0  0  0  0  0
   -1.7850   17.2960    6.7350 F   0  0  0  0  0  0  0  0  0  0  0  0
    0.0910   15.9960    6.0540 C   0  0  0  0  0  3  0  0  0  0  0  0
    1.1160   12.4230    6.9860 C   0  0  0  0  0  0  0  0  0  0  0  0
    2.1920   12.5690    7.8420 F   0  0  0  0  0  0  0  0  0  0  0  0
    0.2830   11.4290    7.4650 F   0  0  0  0  0  0  0  0  0  0  0  0
    1.5920   12.0340    5.7440 F   0  0  0  0  0  0  0  0  0  0  0  0
  1  2  1  0  0  0  0
  2 10  1  0  0  0  0
  2  3  1  0  0  0  0
  3  8  1  0  0  0  0
  3  4  2  0  0  0  0
  4  5  1  0  0  0  0
  5  6  1  0  0  0  0
  7 13  1  0  0  0  0
  7  6  2  0  0  0  0
  8  7  1  0  0  0  0
  9  4  1  0  0  0  0
  9 12  1  0  0  0  0
 10  9  1  0  0  0  0
 11 10  2  0  0  0  0
 13 18  1  0  0  0  0
 14 15  1  0  0  0  0
 14 13  2  0  0  0  0
 15 16  2  0  0  0  0
 16 17  1  0  0  0  0
 18 17  2  0  0  0  0
 19 20  1  0  0  0  0
 19 23  1  0  0  0  0
 20  1  1  0  0  0  0
 21 20  2  0  0  0  0
 22 23  1  0  0  0  0
 24 19  1  0  0  0  0
 24 25  1  0  0  0  0
 25 26  1  0  0  0  0
 26 32  1  0  0  0  0
 26 27  2  0  0  0  0
 28 27  1  0  0  0  0
 29 28  2  0  0  0  0
 30 29  1  0  0  0  0
 31 25  2  0  0  0  0
 31 29  1  0  0  0  0
 32 34  1  0  0  0  0
 32 33  1  0  0  0  0
 35 32  1  0  0  0  0
M  END
>  <MODEL>
1

>  <REMARK>
 VINA RESULT:    -5.621      0.000      0.000
 INTER + INTRA:         -10.345
 INTER:                  -7.921
 INTRA:                  -2.424
 UNBOUND:                -2.424
  Name = emap3_Bn-3CF3_4F_Me
  9 active torsions:
  status: ('A' for Active; 'I' for Inactive)
    1  A    between atoms: C_1  and  C_2
    2  A    between atoms: C_2  and  N_3
    3  A    between atoms: N_3  and  C_4
    4  A    between atoms: C_4  and  C_5
    5  A    between atoms: C_6  and  C_7
    6  A    between atoms: C_16  and  C_18
    7  A    between atoms: C_18  and  N_19
    8  A    between atoms: C_24  and  C_26
    9  A    between atoms: N_32  and  C_35
                            x       y       z     vdW  Elec       q    Type
                         _______ _______ _______ _____ _____    ______ ____

>  <TORSDO>
F 7

$$$$
